[TITLE]
;;Project Title/Notes
00387

[OPTIONS]
;;Option          Value
FLOW_UNITS          CMS          
INFILTRATION          HORTON          
FLOW_ROUTING          DYNWAVE          
START_DATE          01/01/2001          
START_TIME          00:00:00          
REPORT_START_DATE          01/01/2001          
REPORT_START_TIME          00:00:00          
END_DATE          01/01/2001          
END_TIME          00:01:00          
SWEEP_START          01/01          
SWEEP_END          12/31          
DRY_DAYS          0.0          
REPORT_STEP          00:05:00          
WET_STEP          00:00:05          
DRY_STEP          01:00:00          
ROUTING_STEP          2.0          
ALLOW_PONDING          YES          
INERTIAL_DAMPING          NONE          
VARIABLE_STEP          .5          
LENGTHENING_STEP          0.0          
MIN_SURFAREA          25          
NORMAL_FLOW_LIMITED          FROUDE          
SKIP_STEADY_STATE          NO          
FORCE_MAIN_EQUATION          D-W          
LINK_OFFSETS          DEPTH          
MIN_SLOPE          0.0          


[JUNCTIONS]
;;Name          Elevation          MaxDepth          InitDepth          SurDepth          Aponded
;;---------- ----------  ---------- ---------- ---------- ----------
J_42          0          0          0.0          0.0          0
J_25          49.0975685119629          1          0.0          0.0          0
J_26          48.1725845336914          1          0.0          0.0          0
J_34          48.9930152893066          1          0.0          0.0          0
J_28          48.0308532714844          1          0.0          0.0          0
J_29          47.8039703369141          1          0.0          0.0          0
J_33          48.382396697998          1          0.0          0.0          0
J_27          47.5524635314941          1          0.0          0.0          0
J_30          47.046501159668          1          0.0          0.0          0
J_32          47.2884559631348          1          0.0          0.0          0
J_31          46.731201171875          1          0.0          0.0          0
J_38          46.6996879577637          1          0.0          0.0          0
J_39          46.3269805908203          1          0.0          0.0          0
J_74          52.8989601135254          1          0.0          0.0          0
J_71          51.7935791015625          1          0.0          0.0          0
J_72          51.7935791015625          1.06303405761719          0.0          0.0          0
J_73          51.5350875854492          1.00000000000002          0.0          0.0          0
J_35          48.3420295715332          1          0.0          0.0          0
J_36          48.2131958007812          1          0.0          0.0          0
J_37          46.7771911621094          1          0.0          0.0          0
J_43          46.3590240478516          1          0.0          0.0          0
J_40          45.8504676818848          1          0.0          0.0          0
J_18          52.0690650939941          1.00000000000004          0.0          0.0          0
J_55          48.7005996704102          1          0.0          0.0          0
J_56          47.5783462524414          1.00000000000001          0.0          0.0          0
J_12          46.9807815551758          1          0.0          0.0          0
J_13          46.6205825805664          1.00000000000001          0.0          0.0          0
J_19          48.3347511291504          1          0.0          0.0          0
J_57          47.0491065979004          1          0.0          0.0          0
J_77          46.3568458557129          1          0.0          0.0          0
J_41          44.584041595459          1          0.0          0.0          0
J_14          44.584041595459          3.13165664672852          0.0          0.0          0
J_69          47.4148826599121          1          0.0          0.0          0
J_22          47.4148826599121          4.05403137207031          0.0          0.0          0
J_23          47.4148826599121          3.50498199462891          0.0          0.0          0
J_45          47.4148826599121          3.45946884155273          0.0          0.0          0
J_70          51.6931114196777          1          0.0          0.0          0
J_24          49.6793975830078          1          0.0          0.0          0
J_44          47.4148826599121          2.87741088867188          0.0          0.0          0
J_20          51.1648864746094          1          0.0          0.0          0
J_21          50.7317428588867          1          0.0          0.0          0
J_51          50.8895454406738          1          0.0          0.0          0
J_48          49.675968170166          1          0.0          0.0          0
J_52          51.2658576965332          1          0.0          0.0          0
J_53          52.1295585632324          1          0.0          0.0          0
J_46          50.9413719177246          1          0.0          0.0          0
J_47          49.675968170166          1.53661346435548          0.0          0.0          0
J_11          49.675968170166          1.12916946411134          0.0          0.0          0
J_66          49.568302154541          1.00000000000001          0.0          0.0          0
J_64          51.5398216247559          1          0.0          0.0          0
J_63          50.629955291748          1.00000000000005          0.0          0.0          0
J_62          50.615406036377          1          0.0          0.0          0
J_65          50.2674522399902          1          0.0          0.0          0
J_61          49.6272125244141          1          0.0          0.0          0
J_67          49.5516662597656          1          0.0          0.0          0
J_59          49.2045745849609          1          0.0          0.0          0
J_60          49.2045745849609          1.40273666381836          0.0          0.0          0
J_76          55.9321365356445          1.00000000000003          0.0          0.0          0
J_17          54.8318786621094          1          0.0          0.0          0
J_75          54.0197372436523          1.00000000000004          0.0          0.0          0
J_16          53.0531196594238          1.00000000000003          0.0          0.0          0
J_15          53.0531196594238          1.09854888916018          0.0          0.0          0
J_54          49.8321495056152          1          0.0          0.0          0
J_50          49.4974594116211          1          0.0          0.0          0
J_49          48.870304107666          1.00000000000001          0.0          0.0          0
J_10          48.3954544067383          1          0.0          0.0          0
J_68          48.1941909790039          1.00000000000001          0.0          0.0          0
J_58          48.1941909790039          1.15676498413087          0.0          0.0          0

[OUTFALLS]
;;Name          Elevation          type          Stage Data          Gated
;;---------- ----------  ---------- ---------- ----------
O_2          48.1725845336914          FREE                     NO
O_8          46.601806640625          FREE                     NO
O_3          46.6205825805664          FREE                     NO
O_9          45.8397331237793          FREE                     NO
O_4          44.584041595459          FREE                     NO
O_10          47.4148826599121          FREE                     NO
O_7          50.7317428588867          FREE                     NO
O_5          49.1950645446777          FREE                     NO
O_6          47.7220115661621          FREE                     NO
O_1          46.4822120666504          FREE                     NO

[CONDUITS]
;;Name          From Node          To Node          Length          Roughness          InOffset          OutOffset          InitFlow          MaxFlow
;;---------- ----------  ---------- ---------- ---------- ---------- ---------- ---------- ----------
C_1          J_14          O_4          400          0.01          0.0          0.0          0.0          0
C_2          J_41          J_14          400          0.01          0.0          0.0          0.0          0
C_3          J_77          J_14          400          0.01          0.0          0.0          0.0          0
C_4          J_57          J_14          400          0.01          0.0          0.0          0.0          0
C_5          J_13          O_3          400          0.01          0.0          0.0          0.0          0
C_6          J_12          J_13          400          0.01          0.0          0.0          0.0          0
C_7          J_56          J_13          400          0.01          0.0          0.0          0.0          0
C_8          J_19          J_57          400          0.01          0.0          0.0          0.0          0
C_9          J_55          J_56          400          0.01          0.0          0.0          0.0          0
C_10          J_18          J_55          400          0.01          0.0          0.0          0.0          0
C_11          J_54          J_50          400          0.01          0.0          0.0          0.0          0
C_12          J_50          J_49          400          0.01          0.0          0.0          0.0          0
C_13          J_49          J_10          400          0.01          0.0          0.0          0.0          0
C_14          J_10          J_68          400          0.01          0.0          0.0          0.0          0
C_15          J_68          J_58          400          0.01          0.0          0.0          0.0          0
C_16          J_58          O_1          400          0.01          0.0          0.0          0.0          0
C_17          J_15          J_50          400          0.01          0.0          0.0          0.0          0
C_18          J_16          J_51          400          0.01          0.0          0.0          0.0          0
C_19          J_75          J_16          400          0.01          0.0          0.0          0.0          0
C_20          J_16          J_15          400          0.01          0.0          0.0          0.0          0
C_21          J_76          J_17          400          0.01          0.0          0.0          0.0          0
C_22          J_17          J_16          400          0.01          0.0          0.0          0.0          0
C_23          J_17          J_52          400          0.01          0.0          0.0          0.0          0
C_24          J_56          J_57          400          0.01          0.0          0.0          0.0          0
C_25          J_13          J_14          400          0.01          0.0          0.0          0.0          0
C_26          J_60          O_6          400          0.01          0.0          0.0          0.0          0
C_27          J_59          J_60          400          0.01          0.0          0.0          0.0          0
C_28          J_67          J_59          400          0.01          0.0          0.0          0.0          0
C_29          J_66          J_60          400          0.01          0.0          0.0          0.0          0
C_30          J_65          J_61          400          0.01          0.0          0.0          0.0          0
C_31          J_61          J_60          400          0.01          0.0          0.0          0.0          0
C_32          J_62          J_61          400          0.01          0.0          0.0          0.0          0
C_33          J_63          J_62          400          0.01          0.0          0.0          0.0          0
C_34          J_62          O_5          400          0.01          0.0          0.0          0.0          0
C_35          J_64          J_63          400          0.01          0.0          0.0          0.0          0
C_36          J_46          J_47          400          0.01          0.0          0.0          0.0          0
C_37          J_47          J_11          400          0.01          0.0          0.0          0.0          0
C_38          J_11          J_66          400          0.01          0.0          0.0          0.0          0
C_39          J_48          J_47          400          0.01          0.0          0.0          0.0          0
C_40          J_53          J_46          400          0.01          0.0          0.0          0.0          0
C_41          J_51          J_48          400          0.01          0.0          0.0          0.0          0
C_42          J_52          J_47          400          0.01          0.0          0.0          0.0          0
C_43          J_26          O_2          400          0.01          0.0          0.0          0.0          0
C_44          J_44          O_10          400          0.01          0.0          0.0          0.0          0
C_45          J_21          O_7          400          0.01          0.0          0.0          0.0          0
C_46          J_31          O_8          400          0.01          0.0          0.0          0.0          0
C_47          J_40          O_9          400          0.01          0.0          0.0          0.0          0
C_48          J_43          J_40          400          0.01          0.0          0.0          0.0          0
C_49          J_39          J_40          400          0.01          0.0          0.0          0.0          0
C_50          J_38          J_39          400          0.01          0.0          0.0          0.0          0
C_51          J_37          J_43          400          0.01          0.0          0.0          0.0          0
C_52          J_36          J_37          400          0.01          0.0          0.0          0.0          0
C_53          J_35          J_36          400          0.01          0.0          0.0          0.0          0
C_54          J_73          J_35          400          0.01          0.0          0.0          0.0          0
C_55          J_72          J_73          400          0.01          0.0          0.0          0.0          0
C_56          J_71          J_72          400          0.01          0.0          0.0          0.0          0
C_57          J_70          J_24          400          0.01          0.0          0.0          0.0          0
C_58          J_24          J_44          400          0.01          0.0          0.0          0.0          0
C_59          J_74          J_71          400          0.01          0.0          0.0          0.0          0
C_60          J_69          J_22          400          0.01          0.0          0.0          0.0          0
C_61          J_32          J_31          400          0.01          0.0          0.0          0.0          0
C_62          J_33          J_27          400          0.01          0.0          0.0          0.0          0
C_63          J_27          J_30          400          0.01          0.0          0.0          0.0          0
C_64          J_30          J_31          400          0.01          0.0          0.0          0.0          0
C_65          J_34          J_28          400          0.01          0.0          0.0          0.0          0
C_66          J_28          J_29          400          0.01          0.0          0.0          0.0          0
C_67          J_29          J_30          400          0.01          0.0          0.0          0.0          0
C_68          J_25          J_26          400          0.01          0.0          0.0          0.0          0
C_69          J_23          J_45          400          0.01          0.0          0.0          0.0          0
C_70          J_45          J_44          400          0.01          0.0          0.0          0.0          0
C_71          J_20          J_21          400          0.01          0.0          0.0          0.0          0
C_72          J_22          J_23          400          0.01          0.0          0.0          0.0          0
C_73          J_71          J_25          400          0.01          0.0          0.0          0.0          0
C_74          J_35          J_38          400          0.01          0.0          0.0          0.0          0

[XSECTIONS]
;;Link          Shape          Geom1          Geom2          Geom3          Geom4          Barrels          Culvert
;;---------- ----------  ---------- ---------- ---------- ---------- ---------- ----------
C_1          CIRCULAR          1.0          0.0          0.0          0.0          1               
C_2          CIRCULAR          1.0          0.0          0.0          0.0          1               
C_3          CIRCULAR          1.0          0.0          0.0          0.0          1               
C_4          CIRCULAR          1.0          0.0          0.0          0.0          1               
C_5          CIRCULAR          1.0          0.0          0.0          0.0          1               
C_6          CIRCULAR          1.0          0.0          0.0          0.0          1               
C_7          CIRCULAR          1.0          0.0          0.0          0.0          1               
C_8          CIRCULAR          1.0          0.0          0.0          0.0          1               
C_9          CIRCULAR          1.0          0.0          0.0          0.0          1               
C_10          CIRCULAR          1.0          0.0          0.0          0.0          1               
C_11          CIRCULAR          1.0          0.0          0.0          0.0          1               
C_12          CIRCULAR          1.0          0.0          0.0          0.0          1               
C_13          CIRCULAR          1.0          0.0          0.0          0.0          1               
C_14          CIRCULAR          1.0          0.0          0.0          0.0          1               
C_15          CIRCULAR          1.0          0.0          0.0          0.0          1               
C_16          CIRCULAR          1.0          0.0          0.0          0.0          1               
C_17          CIRCULAR          1.0          0.0          0.0          0.0          1               
C_18          CIRCULAR          1.0          0.0          0.0          0.0          1               
C_19          CIRCULAR          1.0          0.0          0.0          0.0          1               
C_20          CIRCULAR          1.0          0.0          0.0          0.0          1               
C_21          CIRCULAR          1.0          0.0          0.0          0.0          1               
C_22          CIRCULAR          1.0          0.0          0.0          0.0          1               
C_23          CIRCULAR          1.0          0.0          0.0          0.0          1               
C_24          CIRCULAR          1.0          0.0          0.0          0.0          1               
C_25          CIRCULAR          1.0          0.0          0.0          0.0          1               
C_26          CIRCULAR          1.0          0.0          0.0          0.0          1               
C_27          CIRCULAR          1.0          0.0          0.0          0.0          1               
C_28          CIRCULAR          1.0          0.0          0.0          0.0          1               
C_29          CIRCULAR          1.0          0.0          0.0          0.0          1               
C_30          CIRCULAR          1.0          0.0          0.0          0.0          1               
C_31          CIRCULAR          1.0          0.0          0.0          0.0          1               
C_32          CIRCULAR          1.0          0.0          0.0          0.0          1               
C_33          CIRCULAR          1.0          0.0          0.0          0.0          1               
C_34          CIRCULAR          1.0          0.0          0.0          0.0          1               
C_35          CIRCULAR          1.0          0.0          0.0          0.0          1               
C_36          CIRCULAR          1.0          0.0          0.0          0.0          1               
C_37          CIRCULAR          1.0          0.0          0.0          0.0          1               
C_38          CIRCULAR          1.0          0.0          0.0          0.0          1               
C_39          CIRCULAR          1.0          0.0          0.0          0.0          1               
C_40          CIRCULAR          1.0          0.0          0.0          0.0          1               
C_41          CIRCULAR          1.0          0.0          0.0          0.0          1               
C_42          CIRCULAR          1.0          0.0          0.0          0.0          1               
C_43          CIRCULAR          1.0          0.0          0.0          0.0          1               
C_44          CIRCULAR          1.0          0.0          0.0          0.0          1               
C_45          CIRCULAR          1.0          0.0          0.0          0.0          1               
C_46          CIRCULAR          1.0          0.0          0.0          0.0          1               
C_47          CIRCULAR          1.0          0.0          0.0          0.0          1               
C_48          CIRCULAR          1.0          0.0          0.0          0.0          1               
C_49          CIRCULAR          1.0          0.0          0.0          0.0          1               
C_50          CIRCULAR          1.0          0.0          0.0          0.0          1               
C_51          CIRCULAR          1.0          0.0          0.0          0.0          1               
C_52          CIRCULAR          1.0          0.0          0.0          0.0          1               
C_53          CIRCULAR          1.0          0.0          0.0          0.0          1               
C_54          CIRCULAR          1.0          0.0          0.0          0.0          1               
C_55          CIRCULAR          1.0          0.0          0.0          0.0          1               
C_56          CIRCULAR          1.0          0.0          0.0          0.0          1               
C_57          CIRCULAR          1.0          0.0          0.0          0.0          1               
C_58          CIRCULAR          1.0          0.0          0.0          0.0          1               
C_59          CIRCULAR          1.0          0.0          0.0          0.0          1               
C_60          CIRCULAR          1.0          0.0          0.0          0.0          1               
C_61          CIRCULAR          1.0          0.0          0.0          0.0          1               
C_62          CIRCULAR          1.0          0.0          0.0          0.0          1               
C_63          CIRCULAR          1.0          0.0          0.0          0.0          1               
C_64          CIRCULAR          1.0          0.0          0.0          0.0          1               
C_65          CIRCULAR          1.0          0.0          0.0          0.0          1               
C_66          CIRCULAR          1.0          0.0          0.0          0.0          1               
C_67          CIRCULAR          1.0          0.0          0.0          0.0          1               
C_68          CIRCULAR          1.0          0.0          0.0          0.0          1               
C_69          CIRCULAR          1.0          0.0          0.0          0.0          1               
C_70          CIRCULAR          1.0          0.0          0.0          0.0          1               
C_71          CIRCULAR          1.0          0.0          0.0          0.0          1               
C_72          CIRCULAR          1.0          0.0          0.0          0.0          1               
C_73          CIRCULAR          1.0          0.0          0.0          0.0          1               
C_74          CIRCULAR          1.0          0.0          0.0          0.0          1               

[LOSSES] 
;;Link          Kentry          Kexit          Kavg          Flap Gate          Seepage
;;---------- ---------- ---------- ---------- ---------- ----------
C_1          0.0          0.0          0.0          NO          0.0               
C_2          0.0          0.0          0.0          NO          0.0               
C_3          0.0          0.0          0.0          NO          0.0               
C_4          0.0          0.0          0.0          NO          0.0               
C_5          0.0          0.0          0.0          NO          0.0               
C_6          0.0          0.0          0.0          NO          0.0               
C_7          0.0          0.0          0.0          NO          0.0               
C_8          0.0          0.0          0.0          NO          0.0               
C_9          0.0          0.0          0.0          NO          0.0               
C_10          0.0          0.0          0.0          NO          0.0               
C_11          0.0          0.0          0.0          NO          0.0               
C_12          0.0          0.0          0.0          NO          0.0               
C_13          0.0          0.0          0.0          NO          0.0               
C_14          0.0          0.0          0.0          NO          0.0               
C_15          0.0          0.0          0.0          NO          0.0               
C_16          0.0          0.0          0.0          NO          0.0               
C_17          0.0          0.0          0.0          NO          0.0               
C_18          0.0          0.0          0.0          NO          0.0               
C_19          0.0          0.0          0.0          NO          0.0               
C_20          0.0          0.0          0.0          NO          0.0               
C_21          0.0          0.0          0.0          NO          0.0               
C_22          0.0          0.0          0.0          NO          0.0               
C_23          0.0          0.0          0.0          NO          0.0               
C_24          0.0          0.0          0.0          NO          0.0               
C_25          0.0          0.0          0.0          NO          0.0               
C_26          0.0          0.0          0.0          NO          0.0               
C_27          0.0          0.0          0.0          NO          0.0               
C_28          0.0          0.0          0.0          NO          0.0               
C_29          0.0          0.0          0.0          NO          0.0               
C_30          0.0          0.0          0.0          NO          0.0               
C_31          0.0          0.0          0.0          NO          0.0               
C_32          0.0          0.0          0.0          NO          0.0               
C_33          0.0          0.0          0.0          NO          0.0               
C_34          0.0          0.0          0.0          NO          0.0               
C_35          0.0          0.0          0.0          NO          0.0               
C_36          0.0          0.0          0.0          NO          0.0               
C_37          0.0          0.0          0.0          NO          0.0               
C_38          0.0          0.0          0.0          NO          0.0               
C_39          0.0          0.0          0.0          NO          0.0               
C_40          0.0          0.0          0.0          NO          0.0               
C_41          0.0          0.0          0.0          NO          0.0               
C_42          0.0          0.0          0.0          NO          0.0               
C_43          0.0          0.0          0.0          NO          0.0               
C_44          0.0          0.0          0.0          NO          0.0               
C_45          0.0          0.0          0.0          NO          0.0               
C_46          0.0          0.0          0.0          NO          0.0               
C_47          0.0          0.0          0.0          NO          0.0               
C_48          0.0          0.0          0.0          NO          0.0               
C_49          0.0          0.0          0.0          NO          0.0               
C_50          0.0          0.0          0.0          NO          0.0               
C_51          0.0          0.0          0.0          NO          0.0               
C_52          0.0          0.0          0.0          NO          0.0               
C_53          0.0          0.0          0.0          NO          0.0               
C_54          0.0          0.0          0.0          NO          0.0               
C_55          0.0          0.0          0.0          NO          0.0               
C_56          0.0          0.0          0.0          NO          0.0               
C_57          0.0          0.0          0.0          NO          0.0               
C_58          0.0          0.0          0.0          NO          0.0               
C_59          0.0          0.0          0.0          NO          0.0               
C_60          0.0          0.0          0.0          NO          0.0               
C_61          0.0          0.0          0.0          NO          0.0               
C_62          0.0          0.0          0.0          NO          0.0               
C_63          0.0          0.0          0.0          NO          0.0               
C_64          0.0          0.0          0.0          NO          0.0               
C_65          0.0          0.0          0.0          NO          0.0               
C_66          0.0          0.0          0.0          NO          0.0               
C_67          0.0          0.0          0.0          NO          0.0               
C_68          0.0          0.0          0.0          NO          0.0               
C_69          0.0          0.0          0.0          NO          0.0               
C_70          0.0          0.0          0.0          NO          0.0               
C_71          0.0          0.0          0.0          NO          0.0               