[TITLE]
;;Project Title/Notes
00387

[OPTIONS]
;;Option          Value
FLOW_UNITS          CMS          
INFILTRATION          HORTON          
FLOW_ROUTING          DYNWAVE          
START_DATE          01/01/2001          
START_TIME          00:00:00          
REPORT_START_DATE          01/01/2001          
REPORT_START_TIME          00:00:00          
END_DATE          01/01/2001          
END_TIME          00:01:00          
SWEEP_START          01/01          
SWEEP_END          12/31          
DRY_DAYS          0.0          
REPORT_STEP          00:05:00          
WET_STEP          00:00:05          
DRY_STEP          01:00:00          
ROUTING_STEP          2.0          
ALLOW_PONDING          YES          
INERTIAL_DAMPING          NONE          
VARIABLE_STEP          .5          
LENGTHENING_STEP          10.0          
MIN_SURFAREA          25          
NORMAL_FLOW_LIMITED          FROUDE          
SKIP_STEADY_STATE          NO          
FORCE_MAIN_EQUATION          D-W          
LINK_OFFSETS          DEPTH          
MIN_SLOPE          0.0          


[JUNCTIONS]
;;Name          Elevation          MaxDepth          InitDepth          SurDepth          Aponded
;;---------- ----------  ---------- ---------- ---------- ----------
J_143          54.7241058349609          1.00000000000004          0          0          0
J_144          53.4975776672363          1.00000000000003          0          0          0
J_145          53.0644073486328          1.00000000000001          0          0          0
J_135          56.3882713317871          1.00000000000001          0          0          0
J_134          55.5976791381836          1          0          0          0
J_136          54.0885124206543          1          0          0          0
J_129          53.6587600708008          1          0          0          0
J_128          51.2328872680664          1.00000000000001          0          0          0
J_122          50.6779670715332          1          0          0          0
J_137          53.5076522827148          1.04371643066411          0          0          0
J_131          52.6121673583984          1.00000000000004          0          0          0
J_130          51.1887474060059          1          0          0          0
J_123          50.2719802856445          1.00000000000003          0          0          0
J_124          49.843921661377          1          0          0          0
J_148          54.4925956726074          1.00000000000002          0          0          0
J_146          53.1696853637695          1.00000000000003          0          0          0
J_82          52.9229164123535          1.00000000000001          0          0          0
J_154          52.5710983276367          1.00000000000002          0          0          0
J_155          52.3219795227051          1          0          0          0
J_83          50.4994049072266          1          0          0          0
J_84          49.4778747558594          1          0          0          0
J_149          51.3213500976562          1.00000000000005          0          0          0
J_150          50.047477722168          1          0          0          0
J_142          54.5759811401367          1.00000000000002          0          0          0
J_138          53.5076522827148          1.00000000000004          0          0          0
J_139          53.3615112304688          1          0          0          0
J_140          52.9830513000488          1.00000000000003          0          0          0
J_141          52.4630851745605          1.00000000000005          0          0          0
J_151          52.4630851745605          1.1557006835938          0          0          0
J_152          51.1740798950195          1.00000000000003          0          0          0
J_153          49.7978057861328          1.00000000000001          0          0          0
J_156          49.1081237792969          1          0          0          0
J_81          49.0427284240723          1          0          0          0
J_125          49.4939994812012          1          0          0          0
J_80          48.4977340698242          1.00000000000002          0          0          0
J_78          48.4442672729492          1.00000000000002          0          0          0
J_58          48.1941909790039          1.15676498413087          0.0          0.0          0
J_454          49.361141204834          1          0          0          0
J_457          49.1613235473633          1          0          0          0
J_463          49.1347923278809          1          0          0          0
J_462          49.0631217956543          1          0          0          0
J_459          49.3537826538086          1          0          0          0
J_461          49.161563873291          1.00000000000001          0          0          0
J_465          48.7575798034668          1          0          0          0
J_464          48.676197052002          1          0          0          0
J_469          48.2086982727051          1          0          0          0
J_470          48.1941909790039          1.80256271362305          0          0          0
J_233          49.6973571777344          1          0          0          0
J_234          49.5867576599121          1.00000000000001          0          0          0
J_235          46.466724395752          1.06616973876948          0          0          0
J_236          44.7789268493652          1.00000000000004          0          0          0
J_237          44.584041595459          1          0          0          0
J_230          46.6682052612305          3.81412124633786          0          0          0
J_239          46.6682052612305          3.26496505737302          0          0          0
J_240          46.6682052612305          2.29314041137692          0          0          0
J_232          46.6682052612305          4.67823028564453          0          0          0
J_241          46.6682052612305          4.9712028503418          0          0          0
J_242          46.466724395752          1          0          0          0
J_243          46.466724395752          1.47773361206055          0          0          0
J_244          45.0592803955078          1.00000000000001          0          0          0
J_248          44.9466705322266          1          0          0          0
J_249          44.9466705322266          1.52854537963867          0          0          0
J_250          44.9466705322266          1.67303085327148          0          0          0
J_238          44.584041595459          1.80544281005858          0          0          0
J_225          47.3484992980957          1          0          0          0
J_226          47.2897644042969          1          0          0          0
J_227          47.1487655639648          1.00000000000004          0          0          0
J_228          46.6682052612305          1.56378555297849          0          0          0
J_229          46.6682052612305          1          0          0          0
J_245          46.0537719726562          1.00000000000005          0          0          0
J_246          46.0537719726562          1.80041503906255          0          0          0
J_247          46.0537719726562          1.46274566650396          0          0          0
J_420          50.307487487793          1          0          0          0
J_419          49.4324188232422          1          0          0          0
J_418          49.4324188232422          2.29708480834961          0          0          0
J_416          49.4324188232422          2.84112548828125          0          0          0
J_417          48.5566444396973          1          0          0          0
J_415          48.5566444396973          1.03890609741211          0          0          0
J_433          47.6758117675781          1.00000000000003          0          0          0
J_432          47.5706024169922          1          0          0          0
J_445          47.4441795349121          1.00000000000001          0          0          0
J_437          46.813117980957          1.00000000000003          0          0          0
J_438          46.3239936828613          1.00000000000003          0          0          0
J_449          50.7912368774414          1.00000000000001          0          0          0
J_450          49.417537689209          1          0          0          0
J_452          50.5720443725586          1          0          0          0
J_436          48.2983589172363          1.00000000000003          0          0          0
J_451          47.936710357666          1.00000000000001          0          0          0
J_414          47.936710357666          1.15405654907228          0          0          0
J_412          47.5706977844238          1.00000000000003          0          0          0
J_411          46.5084991455078          1.00000000000001          0          0          0
J_434          47.4243049621582          1          0          0          0
J_435          47.0859451293945          1.00000000000003          0          0          0
J_431          46.5325202941895          1          0          0          0
J_430          46.5325202941895          1.01078414916992          0          0          0
J_429          46.2441520690918          1          0          0          0
J_427          46.2441520690918          1.3234977722168          0          0          0
J_428          46.2038879394531          1.00000000000003          0          0          0
J_446          47.4124908447266          1          0          0          0
J_442          46.8270225524902          1.00000000000004          0          0          0
J_439          46.2092018127441          1.00000000000004          0          0          0
J_447          47.4068069458008          1          0          0          0
J_443          46.9903984069824          1.00000000000002          0          0          0
J_440          45.9445724487305          1          0          0          0
J_448          47.5664520263672          1          0          0          0
J_444          46.7820472717285          1.00000000000001          0          0          0
J_441          45.8522033691406          1.00000000000003          0          0          0
J_410          45.8522033691406          1.0002250671387          0          0          0
J_409          45.2356948852539          1.00000000000001          0          0          0
J_408          45.1608200073242          1.00000000000002          0          0          0
J_422          45.084285736084          1          0          0          0
J_423          45.084285736084          1.71528244018555          0          0          0
J_426          45.084285736084          1.09612274169922          0          0          0
J_425          45.084285736084          1.10067749023438          0          0          0
J_407          45.084285736084          1.35418701171875          0          0          0
J_421          43.1513175964355          1.00000000000005          0          0          0
J_424          42.8881225585938          1          0          0          0
J_406          42.8537635803223          1          0          0          0
J_396          51.8917541503906          1.00000000000003          0          0          0
J_391          51.8917541503906          1.00872802734378          0          0          0
J_390          51.8917541503906          1.21402740478518          0          0          0
J_399          51.6859359741211          4.36217498779296          0          0          0
J_389          51.6859359741211          5.41505813598632          0          0          0
J_388          56.819465637207          1.00000000000003          0          0          0
J_400          56.819465637207          3.06108093261722          0          0          0
J_387          51.6859359741211          6.19738006591796          0          0          0
J_395          51.6859359741211          1          0          0          0
J_394          51.6859359741211          1.54230880737305          0          0          0
J_393          51.6859359741211          1.70773696899414          0          0          0
J_398          51.6859359741211          1.91667938232422          0          0          0
J_397          51.6859359741211          1.82398223876953          0          0          0
J_382          51.1049346923828          1.00000000000001          0          0          0
J_363          49.0417289733887          1.1198616027832          0          0          0
J_383          51.7447395324707          1          0          0          0
J_384          51.7300796508789          1.00000000000001          0          0          0
J_385          51.5774765014648          1.00000000000004          0          0          0
J_386          51.5774765014648          1.01362991333012          0          0          0
J_380          51.1049346923828          1.61873626708986          0          0          0
J_381          49.6400337219238          1.00000000000003          0          0          0
J_403          49.8241081237793          1          0          0          0
J_364          49.0417289733887          1.05601501464841          0          0          0
J_402          50.0043296813965          1          0          0          0
J_365          48.9063377380371          1.00000000000001          0          0          0
J_378          48.4081916809082          1          0          0          0
J_367          48.3552932739258          1          0          0          0
J_368          48.1648483276367          1.00000000000002          0          0          0
J_369          47.772388458252          1          0          0          0
J_373          47.772388458252          1.03007507324219          0          0          0
J_374          47.6936798095703          1.00000000000001          0          0          0
J_353          47.4034080505371          1.00000000000001          0          0          0
J_366          48.5484352111816          1.00000000000004          0          0          0
J_370          47.9772453308105          1.00000000000005          0          0          0
J_371          47.8876533508301          1          0          0          0
J_372          47.8876533508301          1.28038024902344          0          0          0
J_356          47.8876533508301          1.33290863037109          0          0          0
J_357          47.8876533508301          1.23331832885742          0          0          0
J_347          48.3819847106934          1          0          0          0
J_346          48.3819847106934          1.14169692993164          0          0          0
J_345          47.6745719909668          1          0          0          0
J_344          47.326042175293          1          0          0          0
J_343          47.326042175293          1.07654571533203          0          0          0
J_362          48.4149322509766          1          0          0          0
J_361          48.2333641052246          1.00000000000001          0          0          0
J_360          48.2333641052246          1.13579177856446          0          0          0
J_359          48.2333641052246          1.16085052490235          0          0          0
J_358          48.1485214233398          1.00000000000004          0          0          0
J_355          47.8876533508301          1.27364349365232          0          0          0
J_352          47.4034080505371          1.1634864807129          0          0          0
J_404          50.0288162231445          1.00000000000003          0          0          0
J_348          48.9063377380371          1.22796630859376          0          0          0
J_338          48.782844543457          1.00000000000003          0          0          0
J_337          47.7749671936035          1.00000000000001          0          0          0
J_379          47.57666015625          1          0          0          0
J_336          46.9081535339355          1.00000000000005          0          0          0
J_335          46.6647186279297          1          0          0          0
J_334          46.5316123962402          1.00000000000004          0          0          0
J_333          46.5316123962402          1.21119308471683          0          0          0
J_375          47.6463584899902          1.00000000000004          0          0          0
J_376          47.5790596008301          1          0          0          0
J_377          47.5790596008301          1.0963020324707          0          0          0
J_342          47.326042175293          1.10187530517575          0          0          0
J_341          46.9788703918457          1          0          0          0
J_340          46.794002532959          1          0          0          0
J_351          47.1940383911133          1          0          0          0
J_350          47.1940383911133          1.32837677001953          0          0          0
J_349          47.1940383911133          1.14577484130859          0          0          0
J_339          46.7524948120117          1.00000000000002          0          0          0
J_332          46.4923057556152          1.00000000000004          0          0          0
J_167          53.2608680725098          1          0          0          0
J_161          49.83203125          1          0          0          0
J_163          48.5522232055664          1.00000000000001          0          0          0
J_147          53.0127830505371          1.00000000000001          0          0          0
J_166          52.1173553466797          1          0          0          0
J_169          49.0577239990234          1.00000000000004          0          0          0
J_168          48.6419105529785          1.00000000000001          0          0          0
J_203          51.6229629516602          1          0          0          0
J_204          49.3403739929199          1.00000000000002          0          0          0
J_209          48.9276351928711          1          0          0          0
J_210          47.6918716430664          1.00000000000001          0          0          0
J_179          48.2296485900879          1          0          0          0
J_178          48.0992279052734          1.00000000000004          0          0          0
J_181          47.7208557128906          1.00000000000003          0          0          0
J_184          47.0323448181152          1.00000000000004          0          0          0
J_187          46.8871040344238          1.00000000000003          0          0          0
J_193          46.8871040344238          1.21335220336917          0          0          0
J_231          50.1751327514648          1.00000000000004          0          0          0
J_224          49.4124755859375          1          0          0          0
J_159          52.3051605224609          1.00000000000004          0          0          0
J_158          52.0634384155273          1.00000000000004          0          0          0
J_157          51.7775497436523          1.00000000000004          0          0          0
J_165          49.2203178405762          1          0          0          0
J_164          48.4962387084961          1          0          0          0
J_174          48.0037155151367          1.00000000000002          0          0          0
J_160          50.1577644348145          1          0          0          0
J_162          49.0822944641113          1.00000000000003          0          0          0
J_173          48.4218673706055          1          0          0          0
J_172          47.7262573242188          1          0          0          0
J_175          47.3269271850586          1          0          0          0
J_170          48.9263725280762          1          0          0          0
J_171          48.046932220459          1          0          0          0
J_217          47.8966598510742          1.00000000000002          0          0          0
J_216          47.7690658569336          1          0          0          0
J_214          47.4539375305176          1          0          0          0
J_215          47.1673889160156          1.00000000000003          0          0          0
J_182          48.2049140930176          1          0          0          0
J_183          48.0718116760254          1          0          0          0
J_185          47.6644668579102          1          0          0          0
J_207          48.3943328857422          1          0          0          0
J_206          48.1319618225098          1          0          0          0
J_212          48.0227394104004          1          0          0          0
J_205          48.4818801879883          1          0          0          0
J_208          48.4483985900879          1          0          0          0
J_211          47.6918716430664          1.18516540527344          0          0          0
J_213          47.3777008056641          1          0          0          0
J_218          46.9778251647949          1.00000000000002          0          0          0
J_219          46.8895645141602          1          0          0          0
J_220          46.8215026855469          1          0          0          0
J_221          46.4922790527344          1          0          0          0
J_177          47.4413719177246          1.00000000000001          0          0          0
J_180          46.8617286682129          1          0          0          0
J_186          46.8274536132812          1.00000000000005          0          0          0
J_188          46.6550369262695          1.00000000000003          0          0          0
J_192          46.4970588684082          1          0          0          0
J_198          46.3770866394043          1          0          0          0
J_189          48.6229591369629          1          0          0          0
J_190          47.6644668579102          1.31230163574214          0          0          0
J_191          47.4799919128418          1          0          0          0
J_196          46.8871040344238          1.26242446899417          0          0          0
J_197          46.8871040344238          1.17410659790042          0          0          0
J_199          46.1351165771484          1.00000000000004          0          0          0
J_176          46.6676368713379          1          0          0          0
J_195          46.6370658874512          1          0          0          0
J_223          46.2380752563477          1          0          0          0
J_202          46.7655639648438          1          0          0          0
J_201          46.1305999755859          1.00000000000004          0          0          0
J_200          46.0716667175293          1          0          0          0
J_222          46.0716667175293          1.34439849853516          0          0          0
J_331          52.1466293334961          1          0          0          0
J_330          51.531135559082          1.00000000000003          0          0          0
J_329          51.2494316101074          1.00000000000002          0          0          0
J_269          51.2494316101074          1.05261993408205          0          0          0
J_271          51.0854072570801          1          0          0          0
J_274          49.9187202453613          1.58771896362308          0          0          0
J_270          50.7853736877441          1.00000000000004          0          0          0
J_272          50.7853736877441          1.08523559570317          0          0          0
J_273          50.7129592895508          1          0          0          0
J_275          49.9187202453613          1.08409500122073          0          0          0
J_276          49.879638671875          1          0          0          0
J_284          49.5964660644531          1.00000000000003          0          0          0
J_320          51.7069129943848          1          0          0          0
J_321          51.6930274963379          1          0          0          0
J_319          51.6930274963379          1.25356674194336          0          0          0
J_405          50.4158897399902          1.00000000000004          0          0          0
J_287          50.3944358825684          1          0          0          0
J_285          49.4846534729004          1          0          0          0
J_286          49.3702087402344          1          0          0          0
J_324          51.5186882019043          1          0          0          0
J_325          51.4181709289551          1          0          0          0
J_326          51.4181709289551          1.66938781738281          0          0          0
J_392          51.869701385498          1.00000000000005          0          0          0
J_316          51.6930274963379          2.25556182861327          0          0          0
J_318          52.3046531677246          1.00000000000001          0          0          0
J_323          51.7929191589355          1.00000000000005          0          0          0
J_322          51.6930274963379          2.93964004516601          0          0          0
J_71          51.4181709289551          1.3754081726074          0.0          0.0          0
J_283          51.4181709289551          1.28058624267576          0          0          0
J_308          49.1847915649414          1.00000000000001          0          0          0
J_307          49.0331192016602          1          0          0          0
J_306          48.9647369384766          1          0          0          0
J_288          50.7440032958984          1.00000000000004          0          0          0
J_277          49.2294731140137          1          0          0          0
J_282          49.0417289733887          1          0          0          0
J_281          48.492733001709          1          0          0          0
J_280          48.4345741271973          1          0          0          0
J_279          48.4345741271973          1.04019927978516          0          0          0
J_309          48.7108573913574          1.00000000000002          0          0          0
J_310          48.7108573913574          1.15807342529299          0          0          0
J_314          48.7108573913574          1.43860244750979          0          0          0
J_305          48.3258934020996          1.00000000000001          0          0          0
J_311          48.9349555969238          1.00000000000003          0          0          0
J_312          48.7749099731445          1.00000000000003          0          0          0
J_313          48.7749099731445          1.02231216430667          0          0          0
J_315          48.3258934020996          1.1056022644043          0          0          0
J_278          48.3258934020996          1.37845993041993          0          0          0
J_253          50.5505714416504          1          0          0          0
J_252          48.9627113342285          1.00000000000001          0          0          0
J_300          49.4386901855469          1          0          0          0
J_301          49.3234939575195          1.00000000000003          0          0          0
J_302          49.2607421875          1          0          0          0
J_303          48.2872161865234          1.00000000000004          0          0          0
J_304          48.2872161865234          1.64402770996097          0          0          0
J_453          49.7642974853516          1          0          0          0
J_455          49.9181709289551          1          0          0          0
J_458          49.5761985778809          1          0          0          0
J_456          49.4370956420898          1.00000000000004          0          0          0
J_460          49.2607879638672          1          0          0          0
J_467          49.0587272644043          1          0          0          0
J_466          48.8070602416992          1.00000000000002          0          0          0
J_468          48.8070602416992          1.35433197021487          0          0          0
J_295          49.4879760742188          1          0          0          0
J_294          49.4879760742188          1.17205810546875          0          0          0
J_296          49.4879760742188          1.52349090576172          0          0          0
J_289          49.9950942993164          1.00000000000001          0          0          0
J_290          49.9950942993164          1.17919540405274          0          0          0
J_291          49.9950942993164          1.54824447631837          0          0          0
J_292          49.3718452453613          1.00000000000003          0          0          0
J_299          49.4636154174805          1          0          0          0
J_298          49.3474044799805          1          0          0          0
J_297          49.3474044799805          1.18954086303711          0          0          0
J_293          48.5557823181152          1.00000000000004          0          0          0
J_133          55.825813293457          1.00000000000003          0          0          0
J_132          54.830680847168          1          0          0          0
J_127          54.3909645080566          1.00000000000004          0          0          0
J_126          51.409008026123          1.00000000000005          0          0          0
J_115          55.2319831848145          1          0          0          0
J_113          51.8395233154297          1          0          0          0
J_114          50.9971694946289          1.00000000000001          0          0          0
J_120          50.8107757568359          1.00000000000004          0          0          0