[TITLE]
;;Project Title/Notes
00387

[OPTIONS]
;;Option          Value
FLOW_UNITS          CMS          
INFILTRATION          HORTON          
FLOW_ROUTING          DYNWAVE          
START_DATE          01/01/2001          
START_TIME          00:00:00          
REPORT_START_DATE          01/01/2001          
REPORT_START_TIME          00:00:00          
END_DATE          01/01/2001          
END_TIME          05:00:00          
SWEEP_START          01/01          
SWEEP_END          12/31          
DRY_DAYS          0.0          
REPORT_STEP          00:05:00          
WET_STEP          00:00:05          
DRY_STEP          01:00:00          
ROUTING_STEP          2.0          
ALLOW_PONDING          YES          
INERTIAL_DAMPING          NONE          
VARIABLE_STEP          .5          
LENGTHENING_STEP          10.0         
MIN_SURFAREA          25          
NORMAL_FLOW_LIMITED          FROUDE          
SKIP_STEADY_STATE          NO          
FORCE_MAIN_EQUATION          D-W          
LINK_OFFSETS          DEPTH          
MIN_SLOPE          0.0          


[JUNCTIONS]
;;Name          Elevation          MaxDepth          InitDepth          SurDepth          Aponded
;;---------- ----------  ---------- ---------- ---------- ----------
J_143          54.724          1.000          0.000          0.000          25.000
J_144          53.498          1.000          0.000          0.000          25.000
J_145          53.064          1.000          0.000          0.000          25.000
J_135          56.388          1.000          0.000          0.000          25.000
J_134          55.598          1.000          0.000          0.000          25.000
J_136          54.089          1.000          0.000          0.000          25.000
J_129          53.659          1.000          0.000          0.000          25.000
J_128          51.233          1.000          0.000          0.000          25.000
J_122          50.678          1.000          0.000          0.000          25.000
J_137          53.508          1.044          0.000          0.000          25.000
J_131          52.612          1.000          0.000          0.000          25.000
J_130          51.189          1.000          0.000          0.000          25.000
J_123          50.272          1.000          0.000          0.000          25.000
J_124          49.844          1.000          0.000          0.000          25.000
J_148          54.493          1.000          0.000          0.000          25.000
J_146          53.170          1.000          0.000          0.000          25.000
J_82          52.923          1.000          0.000          0.000          25.000
J_154          52.571          1.000          0.000          0.000         25.000
J_155          52.322          1.000          0.000          0.000         25.000
J_83          50.499          1.000          0.000          0.000          25.000
J_84          49.478          1.000          0.000          0.000          25.000
J_149          51.321          1.000          0.000          0.000         25.000
J_150          50.047          1.000          0.000          0.000         25.000
J_142          54.576          1.000          0.000          0.000         25.000
J_138          53.508          1.000          0.000          0.000         25.000
J_139          53.362          1.000          0.000          0.000         25.000
J_140          52.983          1.000          0.000          0.000         25.000
J_141          52.463          1.000          0.000          0.000         25.000
J_151          52.463          1.156          0.000          0.000         25.000
J_152          51.174          1.000          0.000          0.000         25.000
J_153          49.798          1.000          0.000          0.000         25.000
J_156          49.108          1.000          0.000          0.000         25.000
J_81          49.043          1.000          0.000          0.000          25.000
J_125          49.494          1.000          0.000          0.000         25.000
J_80          48.498          1.000          0.000          0.000          25.000
J_78          48.444          1.000          0.000          0.000          25.000
J_58          48.194          1.157          0.000          0.000          25.000
J_454          49.361          1.000          0.000          0.000         25.000
J_457          49.161          1.000          0.000          0.000         25.000
J_463          49.135          1.000          0.000          0.000         25.000
J_462          49.063          1.000          0.000          0.000         25.000
J_459          49.354          1.000          0.000          0.000         25.000
J_461          49.162          1.000          0.000          0.000         25.000
J_465          48.758          1.000          0.000          0.000         25.000
J_464          48.676          1.000          0.000          0.000         25.000
J_469          48.209          1.000          0.000          0.000         25.000
J_470          48.194          1.803          0.000          0.000         25.000
J_233          49.697          1.000          0.000          0.000         25.000
J_234          49.587          1.000          0.000          0.000         25.000
J_235          46.467          1.066          0.000          0.000         25.000
J_236          44.779          1.000          0.000          0.000         25.000
J_237          44.584          1.000          0.000          0.000         25.000
J_230          46.668          3.814          0.000          0.000         25.000
J_239          46.668          3.265          0.000          0.000         25.000
J_240          46.668          2.293          0.000          0.000         25.000
J_232          46.668          4.678          0.000          0.000         25.000
J_241          46.668          4.971          0.000          0.000         25.000
J_242          46.467          1.000          0.000          0.000         25.000
J_243          46.467          1.478          0.000          0.000         25.000
J_244          45.059          1.000          0.000          0.000         25.000
J_248          44.947          1.000          0.000          0.000         25.000
J_249          44.947          1.529          0.000          0.000         25.000
J_250          44.947          1.673          0.000          0.000         25.000
J_238          44.584          1.805          0.000          0.000         25.000
J_225          47.348          1.000          0.000          0.000         25.000
J_226          47.290          1.000          0.000          0.000         25.000
J_227          47.149          1.000          0.000          0.000         25.000
J_228          46.668          1.564          0.000          0.000         25.000
J_229          46.668          1.000          0.000          0.000         25.000
J_245          46.054          1.000          0.000          0.000         25.000
J_246          46.054          1.800          0.000          0.000         25.000
J_247          46.054          1.463          0.000          0.000         25.000
J_420          50.307          1.000          0.000          0.000         25.000
J_419          49.432          1.000          0.000          0.000         25.000
J_418          49.432          2.297          0.000          0.000         25.000
J_416          49.432          2.841          0.000          0.000         25.000
J_417          48.557          1.000          0.000          0.000         25.000
J_415          48.557          1.039          0.000          0.000         25.000
J_433          47.676          1.000          0.000          0.000          25.000
J_432          47.571          1.000          0.000          0.000          25.000
J_445          47.444          1.000          0.000          0.000          25.000
J_437          46.813          1.000          0.000          0.000          25.000
J_438          46.324          1.000          0.000          0.000          25.000
J_449          50.791          1.000          0.000          0.000          25.000
J_450          49.418          1.000          0.000          0.000          25.000
J_452          50.572          1.000          0.000          0.000          25.000
J_436          48.298          1.000          0.000          0.000          25.000
J_451          47.937          1.000          0.000          0.000          25.000
J_414          47.937          1.154          0.000          0.000          25.000
J_412          47.571          1.000          0.000          0.000          25.000
J_411          46.508          1.000          0.000          0.000          25.000
J_434          47.424          1.000          0.000          0.000          25.000
J_435          47.086          1.000          0.000          0.000          25.000
J_431          46.533          1.000          0.000          0.000          25.000
J_430          46.533          1.011          0.000          0.000          25.000
J_429          46.244          1.000          0.000          0.000          25.000
J_427          46.244          1.323          0.000          0.000          25.000
J_428          46.204          1.000          0.000          0.000          25.000
J_446          47.412          1.000          0.000          0.000          25.000
J_442          46.827          1.000          0.000          0.000          25.000
J_439          46.209          1.000          0.000          0.000          25.000
J_447          47.407          1.000          0.000          0.000          25.000
J_443          46.990          1.000          0.000          0.000          25.000
J_440          45.945          1.000          0.000          0.000          25.000
J_448          47.566          1.000          0.000          0.000          25.000
J_444          46.782          1.000          0.000          0.000          25.000
J_441          45.852          1.000          0.000          0.000          25.000
J_410          45.852          1.000          0.000          0.000          25.000
J_409          45.236          1.000          0.000          0.000          25.000
J_408          45.161          1.000          0.000          0.000          25.000
J_422          45.084          1.000          0.000          0.000          25.000
J_423          45.084          1.715          0.000          0.000          25.000
J_426          45.084          1.096          0.000          0.000          25.000
J_425          45.084          1.101          0.000          0.000          25.000
J_407          45.084          1.354          0.000          0.000          25.000
J_421          43.151          1.000          0.000          0.000          25.000
J_424          42.888          1.000          0.000          0.000          25.000
J_406          42.854          1.000          0.000          0.000          25.000
J_396          51.892          1.000          0.000          0.000          25.000
J_391          51.892          1.009          0.000          0.000          25.000
J_390          51.892          1.214          0.000          0.000          25.000
J_399          51.686          4.362          0.000          0.000          25.000
J_389          51.686          5.415          0.000          0.000          25.000
J_388          56.819          1.000          0.000          0.000          25.000
J_400          56.819          3.061          0.000          0.000          25.000
J_387          51.686          6.197          0.000          0.000          25.000
J_395          51.686          1.000          0.000          0.000          25.000
J_394          51.686          1.542          0.000          0.000          25.000
J_393          51.686          1.708          0.000          0.000          25.000
J_398          51.686          1.917          0.000          0.000          25.000
J_397          51.686          1.824          0.000          0.000          25.000
J_382          51.105          1.000          0.000          0.000          25.000
J_363          49.042          1.120          0.000          0.000          25.000
J_383          51.745          1.000          0.000          0.000          25.000
J_384          51.730          1.000          0.000          0.000          25.000
J_385          51.577          1.000          0.000          0.000          25.000
J_386          51.577          1.014          0.000          0.000          25.000
J_380          51.105          1.619          0.000          0.000          25.000
J_381          49.640          1.000          0.000          0.000          25.000
J_403          49.824          1.000          0.000          0.000          25.000
J_364          49.042          1.056          0.000          0.000          25.000
J_402          50.004          1.000          0.000          0.000          25.000
J_365          48.906          1.000          0.000          0.000          25.000
J_378          48.408          1.000          0.000          0.000          25.000
J_367          48.355          1.000          0.000          0.000          25.000
J_368          48.165          1.000          0.000          0.000          25.000
J_369          47.772          1.000          0.000          0.000          25.000
J_373          47.772          1.030          0.000          0.000          25.000
J_374          47.694          1.000          0.000          0.000          25.000
J_353          47.403          1.000          0.000          0.000          25.000
J_366          48.548          1.000          0.000          0.000          25.000
J_370          47.977          1.000          0.000          0.000          25.000
J_371          47.888          1.000          0.000          0.000          25.000
J_372          47.888          1.280          0.000          0.000          25.000
J_356          47.888          1.333          0.000          0.000          25.000
J_357          47.888          1.233          0.000          0.000          25.000
J_347          48.382          1.000          0.000          0.000          25.000
J_346          48.382          1.142          0.000          0.000          25.000
J_345          47.675          1.000          0.000          0.000          25.000
J_344          47.326          1.000          0.000          0.000          25.000
J_343          47.326          1.077          0.000          0.000          25.000
J_362          48.415          1.000          0.000          0.000          25.000
J_361          48.233          1.000          0.000          0.000          25.000
J_360          48.233          1.136          0.000          0.000          25.000
J_359          48.233          1.161          0.000          0.000          25.000
J_358          48.149          1.000          0.000          0.000          25.000
J_355          47.888          1.274          0.000          0.000          25.000
J_352          47.403          1.163          0.000          0.000          25.000
J_404          50.029          1.000          0.000          0.000          25.000
J_348          48.906          1.228          0.000          0.000          25.000
J_338          48.783          1.000          0.000          0.000          25.000
J_337          47.775          1.000          0.000          0.000          25.000
J_379          47.577          1.000          0.000          0.000          25.000
J_336          46.908          1.000          0.000          0.000          25.000
J_335          46.665          1.000          0.000          0.000          25.000
J_334          46.532          1.000          0.000          0.000          25.000
J_333          46.532          1.211          0.000          0.000          25.000
J_375          47.646          1.000          0.000          0.000          25.000
J_376          47.579          1.000          0.000          0.000          25.000
J_377          47.579          1.096          0.000          0.000          25.000
J_342          47.326          1.102          0.000          0.000          25.000
J_341          46.979          1.000          0.000          0.000          25.000
J_340          46.794          1.000          0.000          0.000          25.000
J_351          47.194          1.000          0.000          0.000          25.000
J_350          47.194          1.328          0.000          0.000          25.000
J_349          47.194          1.146          0.000          0.000          25.000
J_339          46.752          1.000          0.000          0.000          25.000
J_332          46.492          1.000          0.000          0.000          25.000
J_167          53.261          1.000          0.000          0.000          25.000
J_161          49.832          1.000          0.000          0.000          25.000
J_163          48.552          1.000          0.000          0.000          25.000
J_147          53.013          1.000          0.000          0.000          25.000
J_166          52.117          1.000          0.000          0.000          25.000
J_169          49.058          1.000          0.000          0.000          25.000
J_168          48.642          1.000          0.000          0.000          25.000
J_203          51.623          1.000          0.000          0.000          25.000
J_204          49.340          1.000          0.000          0.000          25.000
J_209          48.928          1.000          0.000          0.000          25.000
J_210          47.692          1.000          0.000          0.000          25.000
J_179          48.230          1.000          0.000          0.000          25.000
J_178          48.099          1.000          0.000          0.000          25.000
J_181          47.721          1.000          0.000          0.000          25.000
J_184          47.032          1.000          0.000          0.000          25.000
J_187          46.887          1.000          0.000          0.000          25.000
J_193          46.887          1.213          0.000          0.000          25.000
J_231          50.175          1.000          0.000          0.000          25.000
J_224          49.412          1.000          0.000          0.000          25.000
J_159          52.305          1.000          0.000          0.000          25.000
J_158          52.063          1.000          0.000          0.000          25.000
J_157          51.778          1.000          0.000          0.000          25.000
J_165          49.220          1.000          0.000          0.000          25.000
J_164          48.496          1.000          0.000          0.000          25.000
J_174          48.004          1.000          0.000          0.000          25.000
J_160          50.158          1.000          0.000          0.000          25.000
J_162          49.082          1.000          0.000          0.000          25.000
J_173          48.422          1.000          0.000          0.000          25.000
J_172          47.726          1.000          0.000          0.000          25.000
J_175          47.327          1.000          0.000          0.000          25.000
J_170          48.926          1.000          0.000          0.000          25.000
J_171          48.047          1.000          0.000          0.000          25.000
J_217          47.897          1.000          0.000          0.000          25.000
J_216          47.769          1.000          0.000          0.000          25.000
J_214          47.454          1.000          0.000          0.000          25.000
J_215          47.167          1.000          0.000          0.000          25.000
J_182          48.205          1.000          0.000          0.000          25.000
J_183          48.072          1.000          0.000          0.000          25.000
J_185          47.664          1.000          0.000          0.000          25.000
J_207          48.394          1.000          0.000          0.000          25.000
J_206          48.132          1.000          0.000          0.000          25.000
J_212          48.023          1.000          0.000          0.000          25.000
J_205          48.482          1.000          0.000          0.000          25.000
J_208          48.448          1.000          0.000          0.000          25.000
J_211          47.692          1.185          0.000          0.000          25.000
J_213          47.378          1.000          0.000          0.000          25.000
J_218          46.978          1.000          0.000          0.000          25.000
J_219          46.890          1.000          0.000          0.000          25.000
J_220          46.822          1.000          0.000          0.000          25.000
J_221          46.492          1.000          0.000          0.000          25.000
J_177          47.441          1.000          0.000          0.000          25.000
J_180          46.862          1.000          0.000          0.000          25.000
J_186          46.827          1.000          0.000          0.000          25.000
J_188          46.655          1.000          0.000          0.000          25.000
J_192          46.497          1.000          0.000          0.000          25.000
J_198          46.377          1.000          0.000          0.000          25.000
J_189          48.623          1.000          0.000          0.000          25.000
J_190          47.664          1.312          0.000          0.000          25.000
J_191          47.480          1.000          0.000          0.000          25.000
J_196          46.887          1.262          0.000          0.000          25.000
J_197          46.887          1.174          0.000          0.000          25.000
J_199          46.135          1.000          0.000          0.000          25.000
J_176          46.668          1.000          0.000          0.000          25.000
J_195          46.637          1.000          0.000          0.000          25.000
J_223          46.238          1.000          0.000          0.000          25.000
J_202          46.766          1.000          0.000          0.000          25.000
J_201          46.131          1.000          0.000          0.000          25.000
J_200          46.072          1.000          0.000          0.000          25.000
J_222          46.072          1.344          0.000          0.000          25.000
J_331          52.147          1.000          0.000          0.000          25.000
J_330          51.531          1.000          0.000          0.000          25.000
J_329          51.249          1.000          0.000          0.000          25.000
J_269          51.249          1.053          0.000          0.000          25.000
J_271          51.085          1.000          0.000          0.000          25.000
J_274          49.919          1.588          0.000          0.000          25.000
J_270          50.785          1.000          0.000          0.000          25.000
J_272          50.785          1.085          0.000          0.000          25.000
J_273          50.713          1.000          0.000          0.000          25.000
J_275          49.919          1.084          0.000          0.000          25.000
J_276          49.880          1.000          0.000          0.000          25.000
J_284          49.596          1.000          0.000          0.000          25.000
J_320          51.707          1.000          0.000          0.000          25.000
J_321          51.693          1.000          0.000          0.000          25.000
J_319          51.693          1.254          0.000          0.000          25.000
J_405          50.416          1.000          0.000          0.000          25.000
J_287          50.394          1.000          0.000          0.000          25.000
J_285          49.485          1.000          0.000          0.000          25.000
J_286          49.370          1.000          0.000          0.000          25.000
J_324          51.519          1.000          0.000          0.000          25.000
J_325          51.418          1.000          0.000          0.000          25.000
J_326          51.418          1.669          0.000          0.000          25.000
J_392          51.870          1.000          0.000          0.000          25.000
J_316          51.693          2.256          0.000          0.000          25.000
J_318          52.305          1.000          0.000          0.000          25.000
J_323          51.793          1.000          0.000          0.000          25.000
J_322          51.693          2.940          0.000          0.000          25.000
J_71          51.418          1.375          0.000          0.000          25.000
J_283          51.418          1.281          0.000          0.000          25.000
J_308          49.185          1.000          0.000          0.000          25.000
J_307          49.033          1.000          0.000          0.000          25.000
J_306          48.965          1.000          0.000          0.000          25.000
J_288          50.744          1.000          0.000          0.000          25.000
J_277          49.229          1.000          0.000          0.000          25.000
J_282          49.042          1.000          0.000          0.000          25.000
J_281          48.493          1.000          0.000          0.000          25.000
J_280          48.435          1.000          0.000          0.000          25.000
J_279          48.435          1.040          0.000          0.000          25.000
J_309          48.711          1.000          0.000          0.000          25.000
J_310          48.711          1.158          0.000          0.000          25.000
J_314          48.711          1.439          0.000          0.000          25.000
J_305          48.326          1.000          0.000          0.000          25.000
J_311          48.935          1.000          0.000          0.000          25.000
J_312          48.775          1.000          0.000          0.000          25.000
J_313          48.775          1.022          0.000          0.000          25.000
J_315          48.326          1.106          0.000          0.000          25.000
J_278          48.326          1.378          0.000          0.000          25.000
J_253          50.551          1.000          0.000          0.000          25.000
J_252          48.963          1.000          0.000          0.000          25.000
J_300          49.439          1.000          0.000          0.000          25.000
J_301          49.323          1.000          0.000          0.000          25.000
J_302          49.261          1.000          0.000          0.000          25.000
J_303          48.287          1.000          0.000          0.000          25.000
J_304          48.287          1.644          0.000          0.000          25.000
J_453          49.764          1.000          0.000          0.000          25.000
J_455          49.918          1.000          0.000          0.000          25.000
J_458          49.576          1.000          0.000          0.000          25.000
J_456          49.437          1.000          0.000          0.000          25.000
J_460          49.261          1.000          0.000          0.000          25.000
J_467          49.059          1.000          0.000          0.000          25.000
J_466          48.807          1.000          0.000          0.000          25.000
J_468          48.807          1.354          0.000          0.000          25.000
J_295          49.488          1.000          0.000          0.000          25.000
J_294          49.488          1.172          0.000          0.000          25.000
J_296          49.488          1.523          0.000          0.000          25.000
J_289          49.995          1.000          0.000          0.000          25.000
J_290          49.995          1.179          0.000          0.000          25.000
J_291          49.995          1.548          0.000          0.000          25.000
J_292          49.372          1.000          0.000          0.000          25.000
J_299          49.464          1.000          0.000          0.000          25.000
J_298          49.347          1.000          0.000          0.000          25.000
J_297          49.347          1.190          0.000          0.000          25.000
J_293          48.556          1.000          0.000          0.000          25.000
J_133          55.826          1.000          0.000          0.000          25.000
J_132          54.831          1.000          0.000          0.000          25.000
J_127          54.391          1.000          0.000          0.000          25.000
J_126          51.409          1.000          0.000          0.000          25.000
J_115          55.232          1.000          0.000          0.000          25.000
J_113          51.840          1.000          0.000          0.000          25.000
J_114          50.997          1.000          0.000          0.000          25.000
J_120          50.811          1.000          0.000          0.000          25.000
J_121          50.811          1.172          0.000          0.000          25.000
J_116          50.183          1.000          0.000          0.000          25.000
J_108          49.911          1.000          0.000          0.000          25.000
J_103          49.806          1.000          0.000          0.000          25.000
J_102          49.732          1.000          0.000          0.000          25.000
J_101          49.567          1.000          0.000          0.000          25.000
J_91          49.567          1.006          0.000          0.000          25.000
J_92          49.423          1.000          0.000          0.000          25.000
J_100          49.423          1.024          0.000          0.000          25.000