[TITLE]
;;Project Title/Notes
00289

[OPTIONS]
;;Option          Value
FLOW_UNITS          CMS          
INFILTRATION          HORTON          
FLOW_ROUTING          DYNWAVE          
START_DATE          01/01/2001          
START_TIME          00:00:00          
REPORT_START_DATE          01/01/2001          
REPORT_START_TIME          00:00:00          
END_DATE          01/01/2001          
END_TIME          00:01:00          
SWEEP_START          01/01          
SWEEP_END          12/31          
DRY_DAYS          0.0          
REPORT_STEP          00:05:00          
WET_STEP          00:00:05          
DRY_STEP          01:00:00          
ROUTING_STEP          2.0          
ALLOW_PONDING          YES          
INERTIAL_DAMPING          NONE          
VARIABLE_STEP          .5          
LENGTHENING_STEP          0.0          
MIN_SURFAREA          25          
NORMAL_FLOW_LIMITED          FROUDE          
SKIP_STEADY_STATE          NO          
FORCE_MAIN_EQUATION          D-W          
LINK_OFFSETS          DEPTH          
MIN_SLOPE          0.0          


[JUNCTIONS]
;;Name          Elevation          MaxDepth          InitDepth          SurDepth          Aponded
;;---------- ----------  ---------- ---------- ---------- ----------
J_1009          -1.76          5.37286          0          0          0
J_1012          5.58039          3          0          0          0
J_202          1.7          1.2          0          0          0
J_1011          5.37372          1          0          0          0
J_187          40.7762          1          0          0          0
J_386          40.7762          6.73292          0          0          0
J_257          40.1906          1          0          0          0
J_273          37.31          1          0          0          0
J_389          24.9534          1          0          0          0
J_128          16.6          3.67135          0          0          0
J_392          10.3          6.70449          0          0          0
J_589          10.3          7.48229          0          0          0
J_61          16.8734          1          0          0          0
J_493          14.9614          1          0          0          0
J_438          13.6581          1          0          0          0
J_465          11.8676          1          0          0          0
J_57          10.2865          1          0          0          0
J_124          8.10241          1          0          0          0
J_479          6.26111          1.1          0          0          0
J_374          3.1          1.37929          0          0          0
J_127          1.29592          1.2          0          0          0
J_645          3.50956          1          0          0          0
J_485          3.50956          1.02312          0          0          0
J_500          3.27467          1          0          0          0
J_279          10.8268          1          0          0          0
J_587          2.47          4.70993          0          0          0
J_516          2.47          3.45097          0          0          0
J_456          2.44          4.14062          0          0          0
J_59          1.44519          1.2          0          0          0
J_595          123.8          4.4603          0          0          0
J_215          120.94          1.8242          0          0          0
J_13          105.174          1          0          0          0
J_508          105.174          1          0          0          0
J_148          100.834          3          0          0          0
J_38          91.361          2          0          0          0
J_352          85.4885          1.5          0          0          0
J_552          81.5378          2.00004          0          0          0
J_620          132.362          4.13176          0          0          0
J_218          82.4          3.73166          0          0          0
J_529          1.85          4.95981          0          0          0
J_428          1.4          4.18655          0          0          0
J_617          1          4.06153          0          0          0
J_12          0.75          2.24267          0          0          0
J_340          0.7          2.20488          0          0          0
J_37          0.5          3.07211          0          0          0
J_264          2.05          4.70529          0          0          0
J_478          2          4.58255          0          0          0
J_100          1.8          4.85399          0          0          0
J_330          1.7          4.05306          0          0          0
J_559          1.46392          1.2          0          0          0
J_235          61.4          29.6053          0          0          0
J_217          61.4          13.6335          0          0          0
J_624          58.9596          2          0          0          0
J_298          55.9651          2          0          0          0
J_88          76.9246          2          0          0          0
J_200          74.7          5.07506          0          0          0
J_159          60.2636          2          0          0          0
J_312          69.7          9.5146          0          0          0
J_458          60.2636          3.99949          0          0          0
J_333          60.2636          3.99949          0          0          0
J_409          55.9651          2.3508          0          0          0
J_596          53.3          5.06237          0          0          0
J_266          58.5003          1          0          0          0
J_147          58.4106          1          0          0          0
J_116          44.2          14.5811          0          0          0
J_120          44.2          5.15537          0          0          0
J_111          41.6          13.6318          0          0          0
J_633          41.6          13.6318          0          0          0
J_332          25.9          1.89107          0          0          0
J_286          33.1522          1          0          0          0
J_376          22.3534          2.00004          0          0          0
J_402          26.0498          1.00004          0          0          0
J_313          17.5769          2          0          0          0
J_632          12.6          2.42596          0          0          0
J_358          10.2313          1          0          0          0
J_523          8.23538          1.75          0          0          0
J_441          4.64275          1          0          0          0
J_67          2.40919          1          0          0          0
J_467          10.85          2.88576          0          0          0
J_221          8.17717          1.5          0          0          0
J_628          6.91          2.58113          0          0          0
J_437          6.87          2.60674          0          0          0
J_108          6.8          2.66502          0          0          0
J_325          5          3.18145          0          0          0
J_237          4.88168          2.6752          0          0          0
J_476          5          2.46926          0          0          0
J_606          2.28534          2          0          0          0
J_70          1.6232          2          0          0          0
J_281          1.45051          2          0          0          0
J_174          1.1884          2          0          0          0
J_193          1.01211          2.28144          0          0          0
J_315          -0.0941045          2          0          0          0
J_177          53.0751          1          0          0          0
J_125          46.6          5.85448          0          0          0
J_472          39.6          12.4422          0          0          0
J_52          35.6383          2          0          0          0
J_287          1.93088          2.08398          0          0          0
J_490          1.93088          2.04225          0          0          0
J_435          2.20586          1.5          0          0          0
J_524          39.64          12.1719          0          0          0
J_399          39.64          12.1719          0          0          0
J_323          32.8909          2          0          0          0
J_371          54.8          4.60321          0          0          0
J_637          54.8          4.60321          0          0          0
J_547          54.8          4.72931          0          0          0
J_567          33.8261          1          0          0          0
J_537          31.7272          2.00003          0          0          0
J_360          42.9241          1          0          0          0
J_179          32.9911          1          0          0          0
J_432          29.4825          1          0          0          0
J_183          57          3.47385          0          0          0
J_160          48.4          1.45454          0          0          0
J_514          32.7706          1.00005          0          0          0
J_171          28.8399          1.00003          0          0          0
J_184          26.2583          2          0          0          0
J_414          35.0639          1          0          0          0
J_166          33.4391          1          0          0          0
J_293          33.1179          1          0          0          0
J_245          29.66          1.13745          0          0          0
J_104          26.1          2.56599          0          0          0
J_207          47.2444          1          0          0          0
J_55          2.1          1.6883          0          0          0
J_126          0.3          6.6236          0          0          0
J_498          128.259          1          0          0          0
J_347          53.8654          1          0          0          0
J_54          24.4          2.71248          0          0          0
J_320          24.4          1.60676          0          0          0
J_186          21.58          4.22332          0          0          0
J_640          21.44          2.81935          0          0          0
J_129          18.8918          1          0          0          0
J_16          18.3427          1          0          0          0
J_271          17.9983          1          0          0          0
J_40          26.35          0.15          0          0          0
J_582          20.7316          2          0          0          0
J_1          15.0863          1          0          0          0
J_267          41.38          11.4659          0          0          0
J_460          69.9          10.4858          0          0          0
J_440          60.8216          2          0          0          0
J_328          31.62          0.28          0          0          0
J_571          11.043          1.50003          0          0          0
J_363          6.80562          3          0          0          0
J_555          10.9881          2          0          0          0
J_106          2.20144          1          0          0          0
J_411          0          0          0          0          0
J_282          37.5634          1          0          0          0
J_262          24.8          9.99883          0          0          0
J_379          78.1046          2          0          0          0
J_383          7.14502          1          0          0          0
J_540          55.5          3.74947          0          0          0
J_410          58.5          2.50757          0          0          0
J_543          21.2292          1          0          0          0
J_367          25.8309          1          0          0          0
J_394          20.7589          2.00002          0          0          0
J_135          16.9287          2.00001          0          0          0
J_113          16.8066          2          0          0          0
J_122          14.3659          2.00001          0          0          0
J_506          15.7414          1          0          0          0
J_584          6.71          2.75502          0          0          0
J_542          41.8111          1          0          0          0
J_598          29.4527          1          0          0          0
J_602          114.521          2          0          0          0
J_29          26.6225          1          0          0          0
J_185          6.66393          1          0          0          0
J_3          2.6          1.10586          0          0          0
J_25          54.8          4.75237          0          0          0
J_408          35.8          10.9107          0          0          0
J_501          11.9384          1.2          0          0          0
J_275          18.4322          1          0          0          0
J_372          69.4832          1          0          0          0
J_230          42.8          1.2385          0          0          0
J_145          1.93088          1          0          0          0
J_443          2.5          0.5          0          0          0
J_157          2.46265          0.9          0          0          0
J_474          1.01211          2          0          0          0
J_6          58.9          23.2892          0          0          0
J_471          35.3          4.31562          0          0          0
J_346          31.7272          2.04113          0          0          0
J_361          9.3          1.3          0          0          0
J_519          6.49788          1.2          0          0          0
J_250          46.8361          1          0          0          0
J_276          2.53          4.4308          0          0          0
J_350          132.362          1          0          0          0
J_532          26.0498          1          0          0          0
J_418          -5.11          13.597          0          0          0
J_143          43.51          5.61373          0          0          0
J_572          30.25          9.68007          0          0          0
J_425          28.2          17.1661          0          0          0
J_575          27.3          10.2112          0          0          0
J_136          24.2          14.3406          0          0          0
J_627          23.05          12.5265          0          0          0
J_209          23.05          9.03061          0          0          0
J_492          6.66059          1          0          0          0
J_34          3.50956          1.08601          0          0          0
J_486          2.05          5.16775          0          0          0
J_422          88.9043          1          0          0          0
J_469          10.95          2.79785          0          0          0
J_35          26.9882          1          0          0          0
J_317          14.216          2.00004          0          0          0
J_301          14.216          2.58415          0          0          0
J_198          2.35736          1          0          0          0
J_20          2.20586          1.9443          0          0          0
J_170          0          0          0          0          0
J_636          40.4415          1          0          0          0
J_581          18.05          2.47315          0          0          0
J_272          17.4          1.44968          0          0          0
J_71          16.85          0.55          0          0          0
J_335          12.4882          1.2          0          0          0
J_518          10.9538          1.2          0          0          0
J_483          -1.1          7.94144          0          0          0
J_181          14.6208          1          0          0          0
J_329          10.3004          1.1          0          0          0
J_44          0.3          5.87692          0          0          0
J_642          15.2          2.2          0          0          0
J_556          9.42426          1.1          0          0          0
J_387          9.35023          1.2          0          0          0
J_631          44.0613          1          0          0          0
J_117          10.5806          1.2          0          0          0
J_24          42.35          7.2718          0          0          0
J_247          41.8          9.37598          0          0          0
J_463          14.6291          1          0          0          0
J_260          -1.1          7.99371          0          0          0
J_336          9.34179          1.2          0          0          0
J_199          40.7762          10.5159          0          0          0
J_4          31.1647          1          0          0          0
J_305          3.69708          1          0          0          0
J_123          0.75          3.38205          0          0          0
J_48          101.703          3          0          0          0
J_398          69.7          3.01876          0          0          0
J_219          44.2          11.4125          0          0          0
J_222          22.6          1.97899          0          0          0
J_373          10.21          2.72084          0          0          0
J_550          1.9          2.10856          0          0          0
J_502          12.0126          2          0          0          0
J_623          12.0126          1.57003          0          0          0
J_568          10.4871          2.00004          0          0          0
J_450          30.4207          2          0          0          0
J_626          28.2509          2.00002          0          0          0
J_585          26.1145          2          0          0          0
J_299          22.0108          2          0          0          0
J_331          37.1205          1          0          0          0
J_56          28.8149          1          0          0          0
J_527          18.6527          2          0          0          0
J_436          16.4999          2          0          0          0
J_614          16.4999          1.8123          0          0          0
J_353          16.4898          1          0          0          0
J_480          16.0043          1          0          0          0
J_99          20.2          2.04586          0          0          0
J_503          15.0379          1          0          0          0
J_303          12.47          1          0          0          0
J_255          41.7662          1          0          0          0
J_242          16.1373          1          0          0          0
J_314          33.25          5.64674          0          0          0
J_82          29.21          4.02633          0          0          0
J_613          25.4          2.57808          0          0          0
J_139          7.72254          2          0          0          0
J_400          7.72254          2.03347          0          0          0
J_191          18.9833          1          0          0          0
J_612          14.2136          1          0          0          0
J_167          10.9283          1.00002          0          0          0
J_447          9.62581          1          0          0          0
J_163          9.09907          1          0          0          0
J_102          14.0126          1          0          0          0
J_68          11.6596          1          0          0          0
J_155          11.6117          1          0          0          0
J_588          11.446          1          0          0          0
J_466          7.55221          2          0          0          0
J_289          5.19942          2          0          0          0
J_366          67.1728          1          0          0          0
J_238          49.6983          1          0          0          0
J_227          41.5293          1          0          0          0
J_180          35          6.15789          0          0          0
J_212          32.88          8.08472          0          0          0
J_468          25.72          11.266          0          0          0
J_644          22.69          8.2362          0          0          0
J_343          18.78          3.33804          0          0          0
J_592          11.4493          1.00005          0          0          0
J_109          33.5301          1          0          0          0
J_512          29.1389          1          0          0          0
J_216          24.7104          1          0          0          0
J_240          17.3          1          0          0          0
J_213          23.83          1.57537          0          0          0
J_638          23.47          1.29583          0          0          0
J_284          22.1366          1          0          0          0
J_489          21.4507          1          0          0          0
J_8          19.91          1.02641          0          0          0
J_407          19.0978          1          0          0          0
J_593          17.1446          1          0          0          0
J_45          17.1446          1          0          0          0
J_395          16.5315          1          0          0          0
J_515          15.9          1.54698          0          0          0
J_416          15.89          1.55698          0          0          0
J_359          7.62475          2          0          0          0
J_232          6.83785          2          0          0          0
J_548          15.85          1.20664          0          0          0
J_454          8.15          1.5302          0          0          0
J_223          7.87993          1          0          0          0
J_14          9.7          1.6569          0          0          0
J_342          9.2          1.01378          0          0          0
J_477          16.7654          1          0          0          0
J_553          15.2628          1.00005          0          0          0
J_630          14.2233          1          0          0          0
J_382          13.2498          1.00002          0          0          0
J_190          12.3985          1          0          0          0
J_156          10.767          1          0          0          0
J_93          10.654          1.00003          0          0          0
J_42          10.3035          1.00001          0          0          0
J_280          9.08492          1.7          0          0          0
J_348          8.91652          1.7          0          0          0
J_73          8.91652          1.44006          0          0          0
J_210          7.83135          1          0          0          0
J_21          5.77187          1          0          0          0
J_601          6.8          2.07708          0          0          0
J_388          6.2          2.19045          0          0          0
J_590          5.19942          2.42869          0          0          0
J_101          3.51237          2          0          0          0
J_140          2.9446          2          0          0          0
J_146          10.99          1.23578          0          0          0
J_83          8.7          1.49501          0          0          0
J_345          7.22465          1          0          0          0
J_41          7.11475          1          0          0          0
J_326          7.04517          1.45          0          0          0
J_77          16.9          1.98117          0          0          0
J_89          16.63          2.90992          0          0          0
J_103          15.78          2.75907          0          0          0
J_306          14.9          2.5726          0          0          0
J_141          31.85          11.2731          0          0          0
J_316          17.3438          1          0          0          0
J_531          6.73043          1          0          0          0
J_172          5.65          1.04052          0          0          0
J_525          5.55009          1          0          0          0
J_137          17.93          3.24004          0          0          0
J_96          17.5          3.32212          0          0          0
J_560          16.9          3.92212          0          0          0
J_84          13.02          3.46733          0          0          0
J_236          8.9          3.55048          0          0          0
J_577          66.9          12.3147          0          0          0
J_263          66.2          14.0889          0          0          0
J_10          55.7          23.5081          0          0          0
J_274          40.3584          1          0          0          0
J_535          38.3135          1          0          0          0
J_173          14.3          9.95444          0          0          0
J_505          14.23          11.4971          0          0          0
J_565          14          12.9863          0          0          0
J_97          13.88          15.014          0          0          0
J_380          15.3          7.88051          0          0          0
J_241          8.9          4.20279          0          0          0
J_5          14.85          3.60885          0          0          0
J_229          14.29          6.266          0          0          0
J_487          14.04          6.61669          0          0          0
J_87          13.88          12.1653          0          0          0
J_244          4.64          1.5982          0          0          0
J_194          4.64          1.59709          0          0          0
J_66          43.4          12.0666          0          0          0
J_65          30.1          2.1859          0          0          0
J_252          23.11          9.1759          0          0          0
J_220          22.6376          2          0          0          0
J_513          7.6          2.40736          0          0          0
J_390          4.99808          1          0          0          0
J_18          -0.903431          7.27716          0          0          0
J_214          -0.903431          9.7497          0          0          0
J_417          -0.877201          8.55144          0          0          0
J_261          -1.76          9.25052          0          0          0
J_357          6.05096          1          0          0          0
J_144          4.66688          1          0          0          0
J_239          4.61688          1          0          0          0
J_283          3.3385          1          0          0          0
J_510          2.95631          2.11207          0          0          0
J_429          2.26          2.05293          0          0          0
J_616          1.6          3.32126          0          0          0
J_63          -1.76          9.25052          0          0          0
J_427          36.05          6.17271          0          0          0
J_295          22.5147          2.00001          0          0          0
J_625          22.5147          2.70592          0          0          0
J_648          -1.76          5.28096          0          0          0
J_375          -1.76          6.45444          0          0          0
J_225          -1.76          4.98104          0          0          0
J_80          -1.76          5.06218          0          0          0
J_364          -1.76          5.05927          0          0          0
J_294          -1.76          5.0493          0          0          0
J_211          -1.76          6.53734          0          0          0
J_344          -1.76          6.89358          0          0          0
J_496          57.5611          1          0          0          0
J_133          44.8415          1          0          0          0
J_453          42.9285          1          0          0          0
J_378          38.4041          1          0          0          0
J_449          31.62          7.26842          0          0          0
J_452          29.2          5.16894          0          0          0
J_635          2.9446          2          0          0          0
J_622          3.24914          1          0          0          0
J_365          2.97145          1          0          0          0
J_533          41.55          2.39655          0          0          0
J_334          39.8          3.08577          0          0          0
J_296          25.1          1.84377          0          0          0
J_308          22.6          3.70544          0          0          0
J_169          22.5147          3.05169          0          0          0
J_86          24.1          15.3041          0          0          0
J_377          4.51864          1          0          0          0
J_597          3.37354          1          0          0          0
J_300          1.82557          1          0          0          0
J_7          1.8358          2          0          0          0
J_381          3.21876          1          0          0          0
J_79          1.8358          2.45941          0          0          0
J_538          1.67439          2          0          0          0
J_228          1.6          3.12047          0          0          0
J_369          19.95          1.706          0          0          0
J_433          34.76          7.90579          0          0          0
J_164          33.1          7.4433          0          0          0
J_599          14          3.17858          0          0          0
J_121          14          3.17858          0          0          0
J_203          27.5869          1          0          0          0
J_539          16.9068          1          0          0          0
J_53          11.3          6.28202          0          0          0
J_32          21.1181          1          0          0          0
J_368          12.6645          1          0          0          0
J_152          12.4696          1          0          0          0
J_554          10.3996          2.00004          0          0          0
J_50          10.2449          2.00001          0          0          0