[TITLE]
;;Project Title/Notes
00272

[OPTIONS]
;;Option          Value
FLOW_UNITS          CMS          
INFILTRATION          HORTON          
FLOW_ROUTING          DYNWAVE          
START_DATE          01/01/2001          
START_TIME          00:00:00          
REPORT_START_DATE          01/01/2001          
REPORT_START_TIME          00:00:00          
END_DATE          01/01/2001          
END_TIME          02:00:00          
SWEEP_START          01/01          
SWEEP_END          12/31          
DRY_DAYS          0.0          
REPORT_STEP          00:05:00          
WET_STEP          00:00:05          
DRY_STEP          01:00:00          
ROUTING_STEP          2.0          
ALLOW_PONDING          YES          
INERTIAL_DAMPING          NONE          
VARIABLE_STEP          .5          
LENGTHENING_STEP          0.0          
MIN_SURFAREA          25          
NORMAL_FLOW_LIMITED          FROUDE          
SKIP_STEADY_STATE          NO          
FORCE_MAIN_EQUATION          D-W          
LINK_OFFSETS          DEPTH          
MIN_SLOPE          0.0          


[JUNCTIONS]
;;Name          Elevation          MaxDepth          InitDepth          SurDepth          Aponded
;;---------- ----------  ---------- ---------- ---------- ----------
J_2984          146.2          1.12011          0          0          0
J_2303          39.6859          1.00004          0          0          0
J_1524          3.33          1.20268          0          0          0
J_23          17.7835          3.9987          0          0          0
J_891          33.6736          1          0          0          0
J_231          33.5602          1.00002          0          0          0
J_2500          29.7298          2.00002          0          0          0
J_1661          28.9017          2          0          0          0
J_2295          28.9017          2.02768          0          0          0
J_1352          28.2702          2.00004          0          0          0
J_348          27.8156          2.00002          0          0          0
J_2052          27.6461          2          0          0          0
J_1370          41.2422          1.00005          0          0          0
J_495          12.7038          3          0          0          0
J_1518          45.773          1          0          0          0
J_946          45.2514          1          0          0          0
J_1089          65.1          4.42052          0          0          0
J_2235          12.1787          3.72055          0          0          0
J_1098          12.1787          3.66675          0          0          0
J_1348          25.2056          2.27237          0          0          0
J_738          10.2972          3.00001          0          0          0
J_3441          15.84          0.33          0          0          0
J_899          23.0176          1.00002          0          0          0
J_2662          22.2436          1          0          0          0
J_2338          9.3459          2          0          0          0
J_2797          46.8          2.37536          0          0          0
J_2612          8.10306          3          0          0          0
J_2370          7.26855          3.27447          0          0          0
J_3442          26.91          0.25          0          0          0
J_3443          18.32          0.36          0          0          0
J_3451          21.93          0.2          0          0          0
J_1422          79.8          3.0666          0          0          0
J_1587          77.9          2.57667          0          0          0
J_3052          77.5          2.4323          0          0          0
J_2995          71.5113          3.00004          0          0          0
J_1382          11.326          3.00002          0          0          0
J_2166          10.322          3.00002          0          0          0
J_2490          6.38502          3.10438          0          0          0
J_1232          20          13.7298          0          0          0
J_907          10.2972          2.95883          0          0          0
J_382          10.2972          2.97382          0          0          0
J_426          10.2972          3.02045          0          0          0
J_703          9.6891          2          0          0          0
J_3440          17.98          0.67          0          0          0
J_3452          16.31          0.24          0          0          0
J_3453          33.78          0.54          0          0          0
J_3454          33.46          0.84          0          0          0
J_3455          32.53          1.18          0          0          0
J_3456          30.77          1.3          0          0          0
J_3457          0          0          0          0          0
J_3458          0          0          0          0          0
J_3459          0          0          0          0          0
J_3460          0          0          0          0          0
J_3461          0          0          0          0          0
J_3462          32.3          0.1          0          0          0
J_3463          31.7          0.5          0          0          0
J_3464          0          0          0          0          0
J_3465          0          0          0          0          0
J_3466          32.94          0.81          0          0          0
J_3444          18.58          0.3          0          0          0
J_1895          21.51          0.723841          0          0          0
J_575          19.697          0.99996          0          0          0
J_937          18.8174          1.00004          0          0          0
J_3027          18.2827          0.999979          0          0          0
J_1536          18.0834          1          0          0          0
J_2085          18.0207          0.999952          0          0          0
J_2528          17.657          0.999977          0          0          0
J_560          17.423          1.00004          0          0          0
J_2081          17.3499          0.999979          0          0          0
J_3145          17.1708          1.00003          0          0          0
J_1354          16.8241          1.00002          0          0          0
J_1697          16.6033          1.00004          0          0          0
J_103          16.4944          1.00003          0          0          0
J_3018          16.4149          1.00001          0          0          0
J_1094          16.0128          1          0          0          0
J_2104          15.8922          0.999969          0          0          0
J_476          15.6849          0.999954          0          0          0
J_1202          15.4793          0.999998          0          0          0
J_2959          15.3555          0.999993          0          0          0
J_563          14.9664          0.999987          0          0          0
J_1439          26.1162          1          0          0          0
J_3445          15.93          0.2          0          0          0
J_3446          17.5          0.3          0          0          0
J_3447          17          0.6          0          0          0
J_3448          22.64          0.68          0          0          0
J_3467          33.17          0.57          0          0          0
J_3468          31.7          0.5          0          0          0
J_3469          0          0          0          0          0
J_3470          31.4          0.3          0          0          0
J_3471          31.1          0.3          0          0          0
J_3472          31.36          0.4          0          0          0
J_3473          32.2          0.3          0          0          0
J_2691          85.1136          1.00004          0          0          0
J_2059          75.202          1.00003          0          0          0
J_3474          31.97          0.25          0          0          0
J_3477          32.38          0.18          0          0          0
J_3478          32.27          0.27          0          0          0
J_3479          32.3          0.2          0          0          0
J_3449          20.42          0.35          0          0          0
J_3450          17.95          0.3          0          0          0
J_3475          32.37          0.2          0          0          0
J_3476          32.32          0.4          0          0          0
J_1230          0.946814          3.64879          0          0          0
J_2070          0.946814          1.17585          0          0          0
J_184          0.572251          1          0          0          0
J_2058          6.38502          5.44818          0          0          0
J_1194          4.09953          3          0          0          0
J_2025          0.5          4.33456          0          0          0
J_2713          0.5          4.16603          0          0          0
J_2137          0.5          3.48306          0          0          0
J_1377          1.33834          1.13378          0          0          0
J_427          0.635125          2          0          0          0
J_1091          0.147668          2          0          0          0
J_2222          0.147668          1.46435          0          0          0
J_2979          0.147668          1.42163          0          0          0
J_916          -0.939388          2          0          0          0
J_910          -0.939388          2.4984          0          0          0
J_742          4.08711          1          0          0          0
J_229          28.1969          1          0          0          0
J_1042          47.55          3.92059          0          0          0
J_2937          4.2594          1          0          0          0
J_3106          58.34          5.2344          0          0          0
J_2571          15.4242          0.99995          0          0          0
J_2372          27.6943          1          0          0          0
J_419          12.6146          1.00002          0          0          0
J_2518          4.68433          1.0927          0          0          0
J_2376          4.56758          0.999996          0          0          0
J_1590          4.50849          1.00349          0          0          0
J_898          4.0891          1.08383          0          0          0
J_1361          4.57177          1          0          0          0
J_126          12.4923          1          0          0          0
J_2078          6.04084          1          0          0          0
J_3136          -4.5          6.79744          0          0          0
J_2472          0          0          0          0          0
J_2946          0          0          0          0          0
J_1308          0          0          0          0          0
J_2902          23.1004          1          0          0          0
J_599          32.2087          1          0          0          0
J_2231          50.3013          1          0          0          0
J_1074          85.1          0.220512          0          0          0
J_1739          61.59          8.10809          0          0          0
J_3120          27.3903          2.04802          0          0          0
J_3034          33.2217          1.00004          0          0          0
J_120          31.5627          2          0          0          0
J_2971          31.5627          2          0          0          0
J_1862          31.038          2          0          0          0
J_2840          8.8131          1          0          0          0
J_2013          8.87143          1          0          0          0
J_344          65.9436          0.999962          0          0          0
J_1563          8.35231          1          0          0          0
J_1897          8.35231          3.49378          0          0          0
J_1002          30.4851          2.00004          0          0          0
J_793          8.86717          1          0          0          0
J_1489          13.7992          1          0          0          0
J_3115          65.9436          1.57639          0          0          0
J_2412          64.18          2.48915          0          0          0
J_679          60.99          4.01549          0          0          0
J_2088          47.5          3.2749          0          0          0
J_2768          42.5          4.00341          0          0          0
J_2610          13.7992          1.52072          0          0          0
J_2383          46.7624          1.00003          0          0          0
J_2664          58.34          3.99589          0          0          0
J_905          77.1525          0.999992          0          0          0
J_430          15.4782          1          0          0          0
J_2799          14.9244          0.999991          0          0          0
J_2605          6.97436          0.999998          0          0          0
J_64          6.77413          5.78315          0          0          0
J_2722          11.9094          0.999983          0          0          0
J_112          0          0          0          0          0
J_1821          0          0          0          0          0
J_2711          0          0          0          0          0
J_397          0          0          0          0          0
J_2358          44.9108          1          0          0          0
J_687          42.65          1.28725          0          0          0
J_3029          41.64          2.55424          0          0          0
J_534          28.9          2.85369          0          0          0
J_2559          3.6          3.3638          0          0          0
J_3069          121.862          2.33794          0          0          0
J_151          88.9          10.4544          0          0          0
J_2914          161.41          20.8837          0          0          0
J_2734          57.6          5.35659          0          0          0
J_924          56.0059          1          0          0          0
J_995          0          0          0          0          0
J_1479          158.6          13.1291          0          0          0
J_990          155.2          7.33716          0          0          0
J_2117          40.51          0.8          0          0          0
J_564          143          7.85349          0          0          0
J_2564          63.1          7.21729          0          0          0
J_2066          86.7          6.69562          0          0          0
J_537          64.9          9.76234          0          0          0
J_2893          52.4          15.2821          0          0          0
J_1898          52.4          11.5002          0          0          0
J_1415          52.4          8.7093          0          0          0
J_3128          52.4          11.222          0          0          0
J_2802          52.4          14.679          0          0          0
J_757          35.8478          1          0          0          0
J_1260          136.75          2.38501          0          0          0
J_2873          10.62          0.791961          0          0          0
J_2155          106.401          1.00032          0          0          0
J_1420          97.0542          0.999992          0          0          0
J_86          77.24          1.64242          0          0          0
J_2114          40.4          3.11956          0          0          0
J_2144          16.65          0.45          0          0          0
J_2385          126.1          8.82168          0          0          0
J_2806          113.9          18.7216          0          0          0
J_1986          70.6          6.69519          0          0          0
J_586          52.4          14.4268          0          0          0
J_287          52.4          13.3535          0          0          0
J_1082          52.4          15.0366          0          0          0
J_1680          52.4          13.6861          0          0          0
J_198          52.4          13.0981          0          0          0
J_369          52.4          12.787          0          0          0
J_1401          68.8          9.41767          0          0          0
J_2956          65.6          9.43034          0          0          0
J_161          61.421          1.00003          0          0          0
J_2422          60.4          1.38267          0          0          0
J_2992          76.2437          1          0          0          0
J_2179          72.2495          1          0          0          0
J_299          70.2643          1          0          0          0
J_2895          68.0183          1          0          0          0
J_2405          66.4895          1          0          0          0
J_628          65.6618          1          0          0          0
J_62          63.3446          1          0          0          0
J_594          63.2608          1          0          0          0
J_2336          63.2608          1.81608          0          0          0
J_841          63.2608          2.20479          0          0          0
J_665          63.2608          2.19874          0          0          0
J_2973          63.223          3          0          0          0
J_610          62.5178          3          0          0          0
J_2382          59.8299          3          0          0          0
J_1847          54.247          4.00005          0          0          0
J_2022          52.0042          4.00002          0          0          0
J_3028          54.098          1.39649          0          0          0
J_2353          48.7458          1.31723          0          0          0
J_1540          55.6257          2.42517          0          0          0
J_1025          64.6          3.39352          0          0          0
J_1443          61.9981          1          0          0          0
J_780          54.4849          1          0          0          0
J_737          0          0          0          0          0
J_3144          54.4849          1          0          0          0
J_570          0          0          0          0          0
J_540          38.5028          3          0          0          0
J_2991          52.4          8.89106          0          0          0
J_41          52.4          7.90854          0          0          0
J_195          48.1106          1          0          0          0
J_625          48.1085          1          0          0          0
J_620          48          0.551109          0          0          0
J_1033          36.4305          4          0          0          0
J_3013          48.7458          2.79216          0          0          0
J_1596          54.098          1.2          0          0          0
J_2928          46.7          1.03027          0          0          0
J_2581          45.7          1.40118          0          0          0
J_351          45.4          1.70118          0          0          0
J_2642          45.3          1.80119          0          0          0
J_1208          51.3          3.38586          0          0          0
J_1802          48.3915          3.00005          0          0          0
J_2467          46.0675          3.00001          0          0          0
J_1636          54.098          1.26094          0          0          0
J_247          52.262          1          0          0          0
J_766          49.4744          1          0          0          0
J_1280          48.7458          1          0          0          0
J_2033          54.098          1.4814          0          0          0
J_256          57.3          1.42231          0          0          0
J_2945          56.1504          1          0          0          0
J_3031          48.7458          3.38103          0          0          0
J_1913          140.084          1          0          0          0
J_992          62.6719          2          0          0          0
J_2146          56.7376          2.00001          0          0          0
J_145          90.1          3.99647          0          0          0
J_360          76.713          1          0          0          0
J_1109          107.767          1          0          0          0
J_1501          102.524          1          0          0          0
J_2759          100.884          1          0          0          0
J_770          98.9828          1          0          0          0
J_1388          95.559          1          0          0          0
J_338          95.1532          1          0          0          0
J_149          93.0732          1          0          0          0
J_1239          91.1          1.38008          0          0          0
J_486          88.2          5.13071          0          0          0
J_96          85.2          5.87436          0          0          0
J_2836          84.1          6.06189          0          0          0
J_129          83          6.54365          0          0          0
J_2377          79.6          3.35212          0          0          0
J_2449          79.6          1.40335          0          0          0
J_585          79.4          0.374474          0          0          0
J_2761          72.1661          1          0          0          0
J_1405          68          8.51523          0          0          0
J_3042          68          4.71889          0          0          0
J_1941          66.6          3.11949          0          0          0
J_2361          65.8          3.23103          0          0          0
J_286          92.7737          1          0          0          0
J_19          91.5307          1          0          0          0
J_1054          84.1157          1          0          0          0
J_1616          139.084          2          0          0          0
J_393          133.125          2          0          0          0
J_822          115.802          2          0          0          0
J_557          115.266          2          0          0          0
J_2202          111.786          2          0          0          0
J_1144          96.3          4.00867          0          0          0
J_1119          95.4          8.20924          0          0          0
J_2648          94          8.82069          0          0          0
J_2319          93.5          8.42043          0          0          0
J_1148          92.8          8.18568          0          0          0
J_2479          91.3          4.21021          0          0          0
J_398          87.5          4.42659          0          0          0
J_479          83.8          2.33768          0          0          0
J_503          82.5338          2          0          0          0
J_2932          58.2          0.428673          0          0          0
J_1698          79.3375          1          0          0          0
J_1153          179.621          3.83159          0          0          0
J_2196          67.5          13.6379          0          0          0
J_3015          63.3          3.83214          0          0          0
J_105          62.9          2.96146          0          0          0
J_569          61.7          1.43971          0          0          0
J_3102          59.7985          1          0          0          0
J_2649          59.0745          1          0          0          0
J_2709          156.774          1          0          0          0
J_1326          156.502          1          0          0          0
J_532          79.944          1          0          0          0
J_2677          79.944          1          0          0          0
J_2241          134.1          1.0002          0          0          0
J_1246          132.244          1.00041          0          0          0
J_2594          131.15          1.00024          0          0          0
J_2814          127.157          1.00046          0          0          0
J_885          124.962          0.999756          0          0          0
J_1961          119.544          1.00001          0          0          0
J_73          93.1468          1          0          0          0
J_2172          90.9072          1          0          0          0
J_431          89.6983          1          0          0          0
J_1276          69.8294          2          0          0          0
J_1673          69.1391          2          0          0          0
J_1240          63.0076          2          0          0          0
J_275          68.85          1.38258          0          0          0
J_1350          55.6084          1          0          0          0
J_1731          147.619          0.9          0          0          0
J_472          145.083          0.9          0          0          0
J_1391          143.22          0.9          0          0          0
J_1873          126.56          1.0001          0          0          0
J_633          131.296          1.00024          0          0          0
J_772          99.5366          1          0          0          0
J_1400          96.6963          1          0          0          0
J_541          92.1475          1          0          0          0
J_2111          90.7008          1          0          0          0
J_1460          84.1385          1          0          0          0
J_2363          81.4904          1          0          0          0
J_1367          77.0767          1.00002          0          0          0
J_1749          74.6654          1.00003          0          0          0
J_1633          73.7601          1.00001          0          0          0
J_1031          73.5956          1.00002          0          0          0
J_1804          73.3077          1.00002          0          0          0
J_326          71.5804          1          0          0          0
J_1538          69.5989          1.00001          0          0          0
J_1000          60.0793          1          0          0          0
J_2779          40.1715          1          0          0          0
J_2786          39.6526          1          0          0          0
J_272          49.8671          1          0          0          0
J_1886          49.4986          3.93063          0          0          0
J_662          49.4986          6.93899          0          0          0
J_795          63.784          2          0          0          0
J_2952          60.0793          1.23328          0          0          0
J_1012          68.85          1.6464          0          0          0
J_2643          68.85          1.09933          0          0          0
J_295          67.8719          1.00002          0          0          0
J_1853          67.5836          1          0          0          0
J_1451          64.4643          1.00005          0          0          0
J_1131          62.6225          1          0          0          0
J_702          61.2115          1          0          0          0
J_664          60.6315          1          0          0          0
J_3074          69.3364          1.00004          0          0          0
J_2790          68.7102          1.00003          0          0          0
J_1187          39.6207          1          0          0          0
J_1771          59.877          1          0          0          0
J_2545          39.5836          1          0          0          0
J_656          38.3516          1          0          0          0
J_2526          37.5492          1          0          0          0
J_1210          72.8          6.74817          0          0          0
J_2396          68.9          2.02762          0          0          0
J_1343          66          1.11842          0          0          0
J_1068          62.3429          1          0          0          0
J_2124          60.8391          1          0          0          0
J_2203          56.9071          1.45424          0          0          0
J_902          56.9071          2.46136          0          0          0
J_1102          56.9071          1.20779          0          0          0
J_246          56.4533          1.00004          0          0          0
J_2841          56.1789          1.00002          0          0          0
J_960          55.2037          1.00003          0          0          0
J_2258          54.3549          1          0          0          0
J_94          52.8981          1.18992          0          0          0
J_577          51.2713          1.00002          0          0          0
J_1129          50.7158          1.00004          0          0          0
J_289          50.093          1          0          0          0
J_2487          50.093          1.70471          0          0          0
J_1494          59.6443          1          0          0          0
J_155          56.409          1.00001          0          0          0
J_1289          55.8711          1          0          0          0
J_710          37.5492          1.26702          0          0          0
J_524          36.5423          1          0          0          0
J_2199          53.6327          1          0          0          0
J_1725          52.2341          2.00005          0          0          0
J_1589          41.0983          2          0          0          0
J_1521          40.5433          2.00001          0          0          0
J_616          40.0423          2          0          0          0
J_2900          40.0423          2.56288          0          0          0
J_1646          46.3          7.52886          0          0          0
J_308          49.0177          9.81254          0          0          0
J_182          49.0177          9.68476          0          0          0
J_2683          48.4          6.44817          0          0          0
J_1203          43.4771          1          0          0          0
J_1987          43.4771          1          0          0          0
J_2724          41.7756          1          0          0          0